<?xml version='1.0' encoding='utf-8'?>
<routes><vType id="vType_car_17.226385965292618" accel="1.0" decel="5.0" sigma="0.0" length="4.5" maxSpeed="4.785107212581282" /><vType id="vType_truck_77.14081407098818" accel="1.0" decel="5.0" sigma="0.0" length="8" maxSpeed="21.428003908607828" /><vType id="vType_truck_72.08300784320664" accel="1.0" decel="5.0" sigma="0.0" length="8" maxSpeed="20.023057734224068" /><vType id="vType_car_19.571379986770882" accel="1.0" decel="5.0" sigma="0.0" length="4.5" maxSpeed="5.43649444076969" /><vType id="vType_truck_8.420425268459235" accel="1.0" decel="5.0" sigma="0.0" length="8" maxSpeed="2.3390070190164542" /><vType id="vType_car_19.586026815474245" accel="1.0" decel="5.0" sigma="0.0" length="4.5" maxSpeed="5.440563004298402" /><vType id="vType_car_24.382307165594696" accel="1.0" decel="5.0" sigma="0.0" length="4.5" maxSpeed="6.772863101554082" /><vType id="vType_car_3.84247156384719" accel="1.0" decel="5.0" sigma="0.0" length="4.5" maxSpeed="1.067353212179775" /><vType id="vType_car_10.377142895340821" accel="1.0" decel="5.0" sigma="0.0" length="4.5" maxSpeed="2.882539693150228" /><vType id="vType_car_4.14711206468948" accel="1.0" decel="5.0" sigma="0.0" length="4.5" maxSpeed="1.1519755735248556" /><vType id="vType_car_4.847366999188682" accel="1.0" decel="5.0" sigma="0.0" length="4.5" maxSpeed="1.3464908331079672" /><vType id="vType_car_19.70121819599991" accel="1.0" decel="5.0" sigma="0.0" length="4.5" maxSpeed="5.472560609999975" /><vType id="vType_car_3.7579623242877083" accel="1.0" decel="5.0" sigma="0.0" length="4.5" maxSpeed="1.0438784234132523" /><vType id="vType_car_9.239588247826369" accel="1.0" decel="5.0" sigma="0.0" length="4.5" maxSpeed="2.56655229106288" /><vType id="vType_car_12.57042528729465" accel="1.0" decel="5.0" sigma="0.0" length="4.5" maxSpeed="3.4917848020262916" /><vType id="vType_car_23.806152747784758" accel="1.0" decel="5.0" sigma="0.0" length="4.5" maxSpeed="6.612820207717988" /><vType id="vType_car_4.303242359530371" accel="1.0" decel="5.0" sigma="0.0" length="4.5" maxSpeed="1.1953450998695474" /><vType id="vType_car_22.056149695345656" accel="1.0" decel="5.0" sigma="0.0" length="4.5" maxSpeed="6.126708248707127" /><vType id="vType_car_19.729312855332203" accel="1.0" decel="5.0" sigma="0.0" length="4.5" maxSpeed="5.480364682036723" /><vType id="vType_car_26.232200822571528" accel="1.0" decel="5.0" sigma="0.0" length="4.5" maxSpeed="7.286722450714313" /><vType id="vType_car_15.73773486569653" accel="1.0" decel="5.0" sigma="0.0" length="4.5" maxSpeed="4.371593018249036" /><vType id="vType_car_34.74220556862297" accel="1.0" decel="5.0" sigma="0.0" length="4.5" maxSpeed="9.650612657950825" /><vType id="vType_car_4.578819430009872" accel="1.0" decel="5.0" sigma="0.0" length="4.5" maxSpeed="1.2718942861138534" /><vType id="vType_car_4.967632138978709" accel="1.0" decel="5.0" sigma="0.0" length="4.5" maxSpeed="1.3798978163829745" /><vType id="vType_car_4.935935336142587" accel="1.0" decel="5.0" sigma="0.0" length="4.5" maxSpeed="1.3710931489284965" /><vType id="vType_car_8.403059213990426" accel="1.0" decel="5.0" sigma="0.0" length="4.5" maxSpeed="2.3341831149973404" /><vType id="vType_car_10.792694904415962" accel="1.0" decel="5.0" sigma="0.0" length="4.5" maxSpeed="2.9979708067822117" /><vType id="vType_car_15.461180465761771" accel="1.0" decel="5.0" sigma="0.0" length="4.5" maxSpeed="4.294772351600492" /><vType id="vType_car_51.36788205171679" accel="1.0" decel="5.0" sigma="0.0" length="4.5" maxSpeed="14.268856125476885" /><vType id="vType_car_47.71132866785864" accel="1.0" decel="5.0" sigma="0.0" length="4.5" maxSpeed="13.253146852182955" /><vType id="vType_car_17.497454846042693" accel="1.0" decel="5.0" sigma="0.0" length="4.5" maxSpeed="4.860404123900748" /><vType id="vType_car_14.983720120457898" accel="1.0" decel="5.0" sigma="0.0" length="4.5" maxSpeed="4.162144477904971" /><vType id="vType_truck_23.452186065475782" accel="1.0" decel="5.0" sigma="0.0" length="8" maxSpeed="6.514496129298828" /><vType id="vType_car_39.755654759755146" accel="1.0" decel="5.0" sigma="0.0" length="4.5" maxSpeed="11.043237433265318" /><vType id="vType_car_24.37745235210145" accel="1.0" decel="5.0" sigma="0.0" length="4.5" maxSpeed="6.771514542250403" /><vType id="vType_car_26.52227205692532" accel="1.0" decel="5.0" sigma="0.0" length="4.5" maxSpeed="7.3672977935903665" /><vType id="vType_car_31.079722257924644" accel="1.0" decel="5.0" sigma="0.0" length="4.5" maxSpeed="8.633256182756845" /><vType id="vType_car_35.518806240310745" accel="1.0" decel="5.0" sigma="0.0" length="4.5" maxSpeed="9.866335066752985" /><vType id="vType_car_38.20795101740724" accel="1.0" decel="5.0" sigma="0.0" length="4.5" maxSpeed="10.613319727057567" /><vType id="vType_car_9.733262487077566" accel="1.0" decel="5.0" sigma="0.0" length="4.5" maxSpeed="2.7036840241882127" /><vType id="vType_car_4.399898926340982" accel="1.0" decel="5.0" sigma="0.0" length="4.5" maxSpeed="1.2221941462058283" /><vType id="vType_car_5.132194373788085" accel="1.0" decel="5.0" sigma="0.0" length="4.5" maxSpeed="1.425609548274468" /><vType id="vType_car_4.977774134480612" accel="1.0" decel="5.0" sigma="0.0" length="4.5" maxSpeed="1.3827150373557255" /><vType id="vType_car_56.262624659841435" accel="1.0" decel="5.0" sigma="0.0" length="4.5" maxSpeed="15.628506849955954" /><vType id="vType_car_4.499421032591452" accel="1.0" decel="5.0" sigma="0.0" length="4.5" maxSpeed="1.2498391757198477" /><vType id="vType_car_6.904625737237578" accel="1.0" decel="5.0" sigma="0.0" length="4.5" maxSpeed="1.917951593677105" /><vType id="vType_car_27.282440354389717" accel="1.0" decel="5.0" sigma="0.0" length="4.5" maxSpeed="7.5784556539971435" /><route id="route_north_to_east" edges="north_to_center center_to_east" /><route id="route_north_to_south" edges="north_to_center center_to_south" /><route id="route_north_to_west" edges="north_to_center center_to_west" /><route id="route_east_to_west" edges="east_to_center center_to_west" /><route id="route_east_to_south" edges="east_to_center center_to_south" /><route id="route_east_to_north" edges="east_to_center center_to_north" /><route id="route_south_to_west" edges="south_to_center center_to_west" /><route id="route_south_to_north" edges="south_to_center center_to_north" /><route id="route_south_to_east" edges="south_to_center center_to_east" /><route id="route_west_to_south" edges="west_to_center center_to_south" /><route id="route_west_to_north" edges="west_to_center center_to_north" /><route id="route_west_to_east" edges="west_to_center center_to_east" /><vehicle id="veh158" type="vType_car_17.226385965292618" route="route_south_to_north" depart="1.21" /><vehicle id="veh160" type="vType_truck_77.14081407098818" route="route_west_to_east" depart="8.82" /><vehicle id="veh162" type="vType_truck_72.08300784320664" route="route_west_to_east" depart="10.76" /><vehicle id="veh163" type="vType_car_19.571379986770882" route="route_west_to_east" depart="13.55" /><vehicle id="veh165" type="vType_car_19.586026815474245" route="route_west_to_east" depart="15.66" /><vehicle id="veh166" type="vType_car_24.382307165594696" route="route_south_to_east" depart="15.73" /><vehicle id="veh171" type="vType_car_19.70121819599991" route="route_east_to_west" depart="23.50" /><vehicle id="veh173" type="vType_car_9.239588247826369" route="route_east_to_north" depart="24.88" /><vehicle id="veh174" type="vType_car_12.57042528729465" route="route_east_to_south" depart="27.49" /><vehicle id="veh176" type="vType_car_23.806152747784758" route="route_west_to_east" depart="28.80" /><vehicle id="veh178" type="vType_car_22.056149695345656" route="route_west_to_east" depart="33.03" /><vehicle id="veh180" type="vType_car_19.729312855332203" route="route_north_to_west" depart="34.13" /><vehicle id="veh182" type="vType_car_26.232200822571528" route="route_west_to_east" depart="35.54" /><vehicle id="veh184" type="vType_car_15.73773486569653" route="route_north_to_west" depart="39.70" /><vehicle id="veh185" type="vType_car_34.74220556862297" route="route_west_to_east" depart="40.10" /><vehicle id="veh190" type="vType_car_10.792694904415962" route="route_east_to_north" depart="53.71" /><vehicle id="veh191" type="vType_car_15.461180465761771" route="route_north_to_south" depart="57.07" /><vehicle id="veh192" type="vType_car_51.36788205171679" route="route_east_to_west" depart="64.61" /><vehicle id="veh194" type="vType_car_47.71132866785864" route="route_east_to_west" depart="69.81" /><vehicle id="veh195" type="vType_car_17.497454846042693" route="route_north_to_south" depart="70.98" /><vehicle id="veh196" type="vType_car_14.983720120457898" route="route_south_to_north" depart="76.24" /><vehicle id="veh198" type="vType_truck_23.452186065475782" route="route_west_to_east" depart="84.66" /><vehicle id="veh199" type="vType_car_39.755654759755146" route="route_south_to_north" depart="89.22" /><vehicle id="veh200" type="vType_car_24.37745235210145" route="route_west_to_east" depart="90.16" /><vehicle id="veh201" type="vType_car_26.52227205692532" route="route_east_to_west" depart="93.71" /><vehicle id="veh202" type="vType_car_31.079722257924644" route="route_west_to_east" depart="98.51" /><vehicle id="veh204" type="vType_car_35.518806240310745" route="route_west_to_east" depart="99.38" /><vehicle id="veh205" type="vType_car_38.20795101740724" route="route_west_to_east" depart="102.30" /><vehicle id="veh213" type="vType_car_56.262624659841435" route="route_west_to_east" depart="113.36" /></routes>