<?xml version="1.0" encoding="utf-8"?>
<routes>
	<vType id="vType_car_16.978814219141096" accel="1.0" decel="5.0" sigma="0.0" length="4.5" maxSpeed="4.716337283094749" />
	<vType id="vType_car_3.8623519410520726" accel="1.0" decel="5.0" sigma="0.0" length="4.5" maxSpeed="1.0728755391811313" />
	<vType id="vType_car_67.9347180950674" accel="1.0" decel="5.0" sigma="0.0" length="4.5" maxSpeed="18.87075502640761" />
	<vType id="vType_car_4.720235351210658" accel="1.0" decel="5.0" sigma="0.0" length="4.5" maxSpeed="1.311176486447405" />
	<vType id="vType_car_12.060485327577808" accel="1.0" decel="5.0" sigma="0.0" length="4.5" maxSpeed="3.3501348132160578" />
	<vType id="vType_car_18.39892898204484" accel="1.0" decel="5.0" sigma="0.0" length="4.5" maxSpeed="5.110813606123567" />
	<vType id="vType_car_3.77763908640489" accel="1.0" decel="5.0" sigma="0.0" length="4.5" maxSpeed="1.049344190668025" />
	<vType id="vType_car_3.562034317866539" accel="1.0" decel="5.0" sigma="0.0" length="4.5" maxSpeed="0.9894539771851497" />
	<vType id="vType_car_4.465780572749345" accel="1.0" decel="5.0" sigma="0.0" length="4.5" maxSpeed="1.2404946035414848" />
	<vType id="vType_car_28.72280828893289" accel="1.0" decel="5.0" sigma="0.0" length="4.5" maxSpeed="7.978557858036913" />
	<vType id="vType_car_5.7324495271349" accel="1.0" decel="5.0" sigma="0.0" length="4.5" maxSpeed="1.5923470908708055" />
	<vType id="vType_car_6.335293343746153" accel="1.0" decel="5.0" sigma="0.0" length="4.5" maxSpeed="1.7598037065961536" />
	<vType id="vType_car_6.176290560916464" accel="1.0" decel="5.0" sigma="0.0" length="4.5" maxSpeed="1.71563626692124" />
	<vType id="vType_car_21.249558719765336" accel="1.0" decel="5.0" sigma="0.0" length="4.5" maxSpeed="5.902655199934816" />
	<vType id="vType_car_38.03134632221847" accel="1.0" decel="5.0" sigma="0.0" length="4.5" maxSpeed="10.564262867282908" />
	<vType id="vType_car_29.76100391024335" accel="1.0" decel="5.0" sigma="0.0" length="4.5" maxSpeed="8.266945530623152" />
	<vType id="vType_car_30.797051108985" accel="1.0" decel="5.0" sigma="0.0" length="4.5" maxSpeed="8.554736419162499" />
	<vType id="vType_car_16.611638776289592" accel="1.0" decel="5.0" sigma="0.0" length="4.5" maxSpeed="4.6143441045248865" />
	<vType id="vType_car_6.99031097675824" accel="1.0" decel="5.0" sigma="0.0" length="4.5" maxSpeed="1.941753049099511" />
	<vType id="vType_car_19.888481174425284" accel="1.0" decel="5.0" sigma="0.0" length="4.5" maxSpeed="5.524578104007023" />
	<vType id="vType_car_27.089870528746097" accel="1.0" decel="5.0" sigma="0.0" length="4.5" maxSpeed="7.524964035762805" />
	<vType id="vType_car_36.36624383702828" accel="1.0" decel="5.0" sigma="0.0" length="4.5" maxSpeed="10.101734399174521" />
	<vType id="vType_car_17.993468420125705" accel="1.0" decel="5.0" sigma="0.0" length="4.5" maxSpeed="4.99818567225714" />
	<vType id="vType_car_16.305150975375636" accel="1.0" decel="5.0" sigma="0.0" length="4.5" maxSpeed="4.52920860427101" />
	<vType id="vType_car_18.63187537217089" accel="1.0" decel="5.0" sigma="0.0" length="4.5" maxSpeed="5.175520936714135" />
	<vType id="vType_car_18.536095087036532" accel="1.0" decel="5.0" sigma="0.0" length="4.5" maxSpeed="5.148915301954593" />
	<vType id="vType_bus_22.315796082615687" accel="1.0" decel="5.0" sigma="0.0" length="13" maxSpeed="6.198832245171024" />
	<vType id="vType_car_4.299222200851428" accel="1.0" decel="5.0" sigma="0.0" length="4.5" maxSpeed="1.1942283891253966" />
	<vType id="vType_car_16.252361486365455" accel="1.0" decel="5.0" sigma="0.0" length="4.5" maxSpeed="4.514544857323737" />
	<vType id="vType_car_25.68133067439771" accel="1.0" decel="5.0" sigma="0.0" length="4.5" maxSpeed="7.133702965110475" />
	<vType id="vType_car_6.969643055025922" accel="1.0" decel="5.0" sigma="0.0" length="4.5" maxSpeed="1.9360119597294227" />
	<vType id="vType_car_3.1836134190726755" accel="1.0" decel="5.0" sigma="0.0" length="4.5" maxSpeed="0.8843370608535209" />
	<vType id="vType_car_17.268077459741228" accel="1.0" decel="5.0" sigma="0.0" length="4.5" maxSpeed="4.796688183261452" />
	<vType id="vType_car_3.6648646460834793" accel="1.0" decel="5.0" sigma="0.0" length="4.5" maxSpeed="1.0180179572454109" />
	<vType id="vType_car_15.46375257055795" accel="1.0" decel="5.0" sigma="0.0" length="4.5" maxSpeed="4.2954868251549865" />
	<vType id="vType_truck_22.3412446007918" accel="1.0" decel="5.0" sigma="0.0" length="8" maxSpeed="6.205901277997722" />
	<vType id="vType_car_19.02424391169934" accel="1.0" decel="5.0" sigma="0.0" length="4.5" maxSpeed="5.284512197694261" />
	<vType id="vType_car_25.593975017233646" accel="1.0" decel="5.0" sigma="0.0" length="4.5" maxSpeed="7.109437504787124" />
	<vType id="vType_car_2.143130842698294" accel="1.0" decel="5.0" sigma="0.0" length="4.5" maxSpeed="0.5953141229717483" />
	<vType id="vType_car_18.575633113373783" accel="1.0" decel="5.0" sigma="0.0" length="4.5" maxSpeed="5.159898087048273" />
	<vType id="vType_car_27.197413482006624" accel="1.0" decel="5.0" sigma="0.0" length="4.5" maxSpeed="7.554837078335173" />
	<vType id="vType_car_18.2852916015688" accel="1.0" decel="5.0" sigma="0.0" length="4.5" maxSpeed="5.079247667102445" />
	<vType id="vType_car_19.508976971527133" accel="1.0" decel="5.0" sigma="0.0" length="4.5" maxSpeed="5.419160269868648" />
	<vType id="vType_car_3.637726527649153" accel="1.0" decel="5.0" sigma="0.0" length="4.5" maxSpeed="1.0104795910136537" />
	<vType id="vType_car_22.18196182165855" accel="1.0" decel="5.0" sigma="0.0" length="4.5" maxSpeed="6.161656061571819" />
	<vType id="vType_car_3.128959037718802" accel="1.0" decel="5.0" sigma="0.0" length="4.5" maxSpeed="0.8691552882552227" />
	<vType id="vType_car_17.883475638949157" accel="1.0" decel="5.0" sigma="0.0" length="4.5" maxSpeed="4.967632121930321" />
	<vType id="vType_car_6.1916638426880395" accel="1.0" decel="5.0" sigma="0.0" length="4.5" maxSpeed="1.7199066229688997" />
	<vType id="vType_car_3.6756901833863833" accel="1.0" decel="5.0" sigma="0.0" length="4.5" maxSpeed="1.021025050940662" />
	<vType id="vType_car_3.8179190561701124" accel="1.0" decel="5.0" sigma="0.0" length="4.5" maxSpeed="1.0605330711583645" />
	<vType id="vType_car_28.73463312948289" accel="1.0" decel="5.0" sigma="0.0" length="4.5" maxSpeed="7.98184253596747" />
	<vType id="vType_car_37.14379624080713" accel="1.0" decel="5.0" sigma="0.0" length="4.5" maxSpeed="10.31772117800198" />
	<vType id="vType_car_10.38841805653463" accel="1.0" decel="5.0" sigma="0.0" length="4.5" maxSpeed="2.8856716823707305" />
	<vType id="vType_car_6.434462762904264" accel="1.0" decel="5.0" sigma="0.0" length="4.5" maxSpeed="1.7873507674734066" />
	<vType id="vType_car_36.641969619623225" accel="1.0" decel="5.0" sigma="0.0" length="4.5" maxSpeed="10.178324894339784" />
	<vType id="vType_car_17.91682920299235" accel="1.0" decel="5.0" sigma="0.0" length="4.5" maxSpeed="4.976897000831208" />
	<vType id="vType_car_10.837960337675359" accel="1.0" decel="5.0" sigma="0.0" length="4.5" maxSpeed="3.0105445382431553" />
	<vType id="vType_car_4.222326047694476" accel="1.0" decel="5.0" sigma="0.0" length="4.5" maxSpeed="1.1728683465817988" />
	<vType id="vType_car_33.08760168501045" accel="1.0" decel="5.0" sigma="0.0" length="4.5" maxSpeed="9.191000468058457" />
	<vType id="vType_car_4.332598208571492" accel="1.0" decel="5.0" sigma="0.0" length="4.5" maxSpeed="1.2034995023809698" />
	<vType id="vType_car_35.44981169331932" accel="1.0" decel="5.0" sigma="0.0" length="4.5" maxSpeed="9.847169914810921" />
	<vType id="vType_car_18.719904448235535" accel="1.0" decel="5.0" sigma="0.0" length="4.5" maxSpeed="5.199973457843204" />
	<vType id="vType_car_4.767838559325959" accel="1.0" decel="5.0" sigma="0.0" length="4.5" maxSpeed="1.3243995998127664" />
	<vType id="vType_car_12.513236361349335" accel="1.0" decel="5.0" sigma="0.0" length="4.5" maxSpeed="3.475898989263704" />
	<vType id="vType_car_4.090588955072812" accel="1.0" decel="5.0" sigma="0.0" length="4.5" maxSpeed="1.136274709742448" />
	<vType id="vType_car_4.723087295897823" accel="1.0" decel="5.0" sigma="0.0" length="4.5" maxSpeed="1.3119686933049508" />
	<vType id="vType_car_1.618118567754406" accel="1.0" decel="5.0" sigma="0.0" length="4.5" maxSpeed="0.44947737993177944" />
	<vType id="vType_car_10.466011018905045" accel="1.0" decel="5.0" sigma="0.0" length="4.5" maxSpeed="2.907225283029179" />
	<vType id="vType_car_4.151457623660436" accel="1.0" decel="5.0" sigma="0.0" length="4.5" maxSpeed="1.15318267323901" />
	<vType id="vType_car_2.813474632050994" accel="1.0" decel="5.0" sigma="0.0" length="4.5" maxSpeed="0.7815207311252761" />
	<vType id="vType_car_5.472016509689636" accel="1.0" decel="5.0" sigma="0.0" length="4.5" maxSpeed="1.520004586024899" />
	<vType id="vType_car_3.2964322506080888" accel="1.0" decel="5.0" sigma="0.0" length="4.5" maxSpeed="0.9156756251689135" />
	<vType id="vType_car_5.342388429744504" accel="1.0" decel="5.0" sigma="0.0" length="4.5" maxSpeed="1.48399678604014" />
	<vType id="vType_car_25.68293148200747" accel="1.0" decel="5.0" sigma="0.0" length="4.5" maxSpeed="7.134147633890963" />
	<vType id="vType_car_3.609915953247436" accel="1.0" decel="5.0" sigma="0.0" length="4.5" maxSpeed="1.002754431457621" />
	<vType id="vType_car_5.024472696124143" accel="1.0" decel="5.0" sigma="0.0" length="4.5" maxSpeed="1.395686860034484" />
	<vType id="vType_car_3.8214198443495464" accel="1.0" decel="5.0" sigma="0.0" length="4.5" maxSpeed="1.0615055123193184" />
	<vType id="vType_car_3.496522787498697" accel="1.0" decel="5.0" sigma="0.0" length="4.5" maxSpeed="0.9712563298607492" />
	<vType id="vType_car_25.08564709756658" accel="1.0" decel="5.0" sigma="0.0" length="4.5" maxSpeed="6.968235304879605" />
	<vType id="vType_car_20.59246495290646" accel="1.0" decel="5.0" sigma="0.0" length="4.5" maxSpeed="5.720129153585128" />
	<vType id="vType_car_21.74590980199508" accel="1.0" decel="5.0" sigma="0.0" length="4.5" maxSpeed="6.040530500554189" />
	<vType id="vType_car_8.156157478707321" accel="1.0" decel="5.0" sigma="0.0" length="4.5" maxSpeed="2.2655992996409227" />
	<vType id="vType_car_14.374403579422022" accel="1.0" decel="5.0" sigma="0.0" length="4.5" maxSpeed="3.9928898831727837" />
	<vType id="vType_car_23.425721109763316" accel="1.0" decel="5.0" sigma="0.0" length="4.5" maxSpeed="6.507144752712032" />
	<vType id="vType_car_39.63851475506658" accel="1.0" decel="5.0" sigma="0.0" length="4.5" maxSpeed="11.01069854307405" />
	<vType id="vType_car_5.484077879917631" accel="1.0" decel="5.0" sigma="0.0" length="4.5" maxSpeed="1.5233549666437864" />
	<vType id="vType_car_17.329074164289313" accel="1.0" decel="5.0" sigma="0.0" length="4.5" maxSpeed="4.813631712302587" />
	<vType id="vType_car_17.005296846253646" accel="1.0" decel="5.0" sigma="0.0" length="4.5" maxSpeed="4.723693568403791" />
	<vType id="vType_car_4.192717581374302" accel="1.0" decel="5.0" sigma="0.0" length="4.5" maxSpeed="1.1646437726039727" />
	<vType id="vType_car_18.615334887965076" accel="1.0" decel="5.0" sigma="0.0" length="4.5" maxSpeed="5.170926357768077" />
	<vType id="vType_car_27.8922621163094" accel="1.0" decel="5.0" sigma="0.0" length="4.5" maxSpeed="7.747850587863722" />
	<vType id="vType_car_18.064911886735356" accel="1.0" decel="5.0" sigma="0.0" length="4.5" maxSpeed="5.0180310796487095" />
	<vType id="vType_car_4.264827904223456" accel="1.0" decel="5.0" sigma="0.0" length="4.5" maxSpeed="1.1846744178398487" />
	<vType id="vType_car_31.252086199170055" accel="1.0" decel="5.0" sigma="0.0" length="4.5" maxSpeed="8.681135055325015" />
	<vType id="vType_car_3.7776390864048897" accel="1.0" decel="5.0" sigma="0.0" length="4.5" maxSpeed="1.049344190668025" />
	<vType id="vType_car_17.973894025592685" accel="1.0" decel="5.0" sigma="0.0" length="4.5" maxSpeed="4.992748340442413" />
	<vType id="vType_car_20.878995325138963" accel="1.0" decel="5.0" sigma="0.0" length="4.5" maxSpeed="5.799720923649712" />
	<vType id="vType_car_28.898050617452597" accel="1.0" decel="5.0" sigma="0.0" length="4.5" maxSpeed="8.02723628262572" />
	<vType id="vType_car_32.449897170124956" accel="1.0" decel="5.0" sigma="0.0" length="4.5" maxSpeed="9.01386032503471" />
	<vType id="vType_car_5.702661224110719" accel="1.0" decel="5.0" sigma="0.0" length="4.5" maxSpeed="1.5840725622529774" />
	<vType id="vType_car_25.2368128743286" accel="1.0" decel="5.0" sigma="0.0" length="4.5" maxSpeed="7.010225798424611" />
	<vType id="vType_car_3.7776390864048905" accel="1.0" decel="5.0" sigma="0.0" length="4.5" maxSpeed="1.0493441906680252" />
	<vType id="vType_car_53.42388429744505" accel="1.0" decel="5.0" sigma="0.0" length="4.5" maxSpeed="14.839967860401401" />
	<vType id="vType_car_17.753232490211126" accel="1.0" decel="5.0" sigma="0.0" length="4.5" maxSpeed="4.93145346950309" />
	<vType id="vType_car_23.358271641695985" accel="1.0" decel="5.0" sigma="0.0" length="4.5" maxSpeed="6.488408789359996" />
	<vType id="vType_car_5.533677236881242" accel="1.0" decel="5.0" sigma="0.0" length="4.5" maxSpeed="1.537132565800345" />
	<vType id="vType_car_22.446352282733944" accel="1.0" decel="5.0" sigma="0.0" length="4.5" maxSpeed="6.235097856314984" />
	<vType id="vType_car_5.187465819874255" accel="1.0" decel="5.0" sigma="0.0" length="4.5" maxSpeed="1.4409627277428487" />
	<vType id="vType_car_23.666998604475182" accel="1.0" decel="5.0" sigma="0.0" length="4.5" maxSpeed="6.574166279020884" />
	<vType id="vType_car_3.2328323883492254" accel="1.0" decel="5.0" sigma="0.0" length="4.5" maxSpeed="0.8980089967636737" />
	<vType id="vType_car_5.871950938273157" accel="1.0" decel="5.0" sigma="0.0" length="4.5" maxSpeed="1.6310974828536546" />
	<vType id="vType_car_20.526713395445533" accel="1.0" decel="5.0" sigma="0.0" length="4.5" maxSpeed="5.701864832068203" />
	<vType id="vType_car_26.818703627037905" accel="1.0" decel="5.0" sigma="0.0" length="4.5" maxSpeed="7.449639896399418" />
	<vType id="vType_car_19.866174889563464" accel="1.0" decel="5.0" sigma="0.0" length="4.5" maxSpeed="5.518381913767628" />
	<vType id="vType_car_18.615722953511995" accel="1.0" decel="5.0" sigma="0.0" length="4.5" maxSpeed="5.1710341537533315" />
	<vType id="vType_car_20.32386055045235" accel="1.0" decel="5.0" sigma="0.0" length="4.5" maxSpeed="5.645516819570097" />
	<vType id="vType_car_3.976315620751706" accel="1.0" decel="5.0" sigma="0.0" length="4.5" maxSpeed="1.1045321168754738" />
	<vType id="vType_car_4.838215724046911" accel="1.0" decel="5.0" sigma="0.0" length="4.5" maxSpeed="1.3439488122352532" />
	<vType id="vType_car_23.60725452686682" accel="1.0" decel="5.0" sigma="0.0" length="4.5" maxSpeed="6.5575707019074505" />
	<vType id="vType_car_20.507713492642154" accel="1.0" decel="5.0" sigma="0.0" length="4.5" maxSpeed="5.696587081289487" />
	<vType id="vType_car_27.207864358969015" accel="1.0" decel="5.0" sigma="0.0" length="4.5" maxSpeed="7.557740099713615" />
	<vType id="vType_car_3.9667013948220555" accel="1.0" decel="5.0" sigma="0.0" length="4.5" maxSpeed="1.1018614985616821" />
	<vType id="vType_car_4.471400795712544" accel="1.0" decel="5.0" sigma="0.0" length="4.5" maxSpeed="1.2420557765868177" />
	<vType id="vType_car_16.840823373634894" accel="1.0" decel="5.0" sigma="0.0" length="4.5" maxSpeed="4.678006492676359" />
	<vType id="vType_car_4.038430643628159" accel="1.0" decel="5.0" sigma="0.0" length="4.5" maxSpeed="1.1217862898967108" />
	<vType id="vType_car_18.30209337139898" accel="1.0" decel="5.0" sigma="0.0" length="4.5" maxSpeed="5.083914825388605" />
	<vType id="vType_car_23.910287759357427" accel="1.0" decel="5.0" sigma="0.0" length="4.5" maxSpeed="6.6417465998215075" />
	<vType id="vType_car_3.7287110624816875" accel="1.0" decel="5.0" sigma="0.0" length="4.5" maxSpeed="1.0357530729115798" />
	<vType id="vType_truck_27.241764447398804" accel="1.0" decel="5.0" sigma="0.0" length="8" maxSpeed="7.567156790944112" />
	<vType id="vType_car_18.353785232020268" accel="1.0" decel="5.0" sigma="0.0" length="4.5" maxSpeed="5.0982736755611855" />
	<vType id="vType_car_17.917870471171714" accel="1.0" decel="5.0" sigma="0.0" length="4.5" maxSpeed="4.977186241992142" />
	<vType id="vType_car_22.051429463186466" accel="1.0" decel="5.0" sigma="0.0" length="4.5" maxSpeed="6.125397073107352" />
	<vType id="vType_car_15.465114688556643" accel="1.0" decel="5.0" sigma="0.0" length="4.5" maxSpeed="4.295865191265734" />
	<vType id="vType_truck_19.81638316806765" accel="1.0" decel="5.0" sigma="0.0" length="8" maxSpeed="5.504550880018791" />
	<vType id="vType_car_1.496455834556592" accel="1.0" decel="5.0" sigma="0.0" length="4.5" maxSpeed="0.41568217626571996" />
	<vType id="vType_car_16.053802938611604" accel="1.0" decel="5.0" sigma="0.0" length="4.5" maxSpeed="4.459389705169889" />
	<vType id="vType_car_28.65523822712717" accel="1.0" decel="5.0" sigma="0.0" length="4.5" maxSpeed="7.959788396424214" />
	<vType id="vType_car_5.9240582379874045" accel="1.0" decel="5.0" sigma="0.0" length="4.5" maxSpeed="1.645571732774279" />
	<vType id="vType_car_5.76449387488165" accel="1.0" decel="5.0" sigma="0.0" length="4.5" maxSpeed="1.601248298578236" />
	<vType id="vType_car_5.407666644104869" accel="1.0" decel="5.0" sigma="0.0" length="4.5" maxSpeed="1.5021296233624635" />
	<vType id="vType_car_21.45221070803502" accel="1.0" decel="5.0" sigma="0.0" length="4.5" maxSpeed="5.958947418898617" />
	<vType id="vType_car_41.598743300508765" accel="1.0" decel="5.0" sigma="0.0" length="4.5" maxSpeed="11.555206472363546" />
	<vType id="vType_car_34.980391327422794" accel="1.0" decel="5.0" sigma="0.0" length="4.5" maxSpeed="9.716775368728554" />
	<vType id="vType_car_84.47057791661537" accel="1.0" decel="5.0" sigma="0.0" length="4.5" maxSpeed="23.464049421282045" />
	<vType id="vType_car_29.164661574255096" accel="1.0" decel="5.0" sigma="0.0" length="4.5" maxSpeed="8.101294881737527" />
	<vType id="vType_car_38.265927752463924" accel="1.0" decel="5.0" sigma="0.0" length="4.5" maxSpeed="10.629424375684422" />
	<vType id="vType_car_32.36890498345181" accel="1.0" decel="5.0" sigma="0.0" length="4.5" maxSpeed="8.991362495403282" />
	<vType id="vType_car_55.05753940301949" accel="1.0" decel="5.0" sigma="0.0" length="4.5" maxSpeed="15.293760945283191" />
    <vType id="vType_car_19.77709169909583" accel="1.0" decel="5.0" sigma="0.0" length="4.5" maxSpeed="5.493636583082175" />
	<vType id="vType_car_24.03659419208535" accel="1.0" decel="5.0" sigma="0.0" length="4.5" maxSpeed="6.676831720023708" />
	<vType id="vType_car_7.33582090348938" accel="1.0" decel="5.0" sigma="0.0" length="4.5" maxSpeed="2.03772802874705" />
	<vType id="vType_car_22.62598679814697" accel="1.0" decel="5.0" sigma="0.0" length="4.5" maxSpeed="6.2849963328186025" />
	<vType id="vType_car_25.791538474809542" accel="1.0" decel="5.0" sigma="0.0" length="4.5" maxSpeed="7.16431624300265" />
	<vType id="vType_car_15.298966425698653" accel="1.0" decel="5.0" sigma="0.0" length="4.5" maxSpeed="4.249712896027404" />
	<vType id="vType_car_6.716877722758548" accel="1.0" decel="5.0" sigma="0.0" length="4.5" maxSpeed="1.86579936743293" />
	<vType id="vType_car_27.75493534894088" accel="1.0" decel="5.0" sigma="0.0" length="4.5" maxSpeed="7.709704263594689" />
	<vType id="vType_car_4.722048858006112" accel="1.0" decel="5.0" sigma="0.0" length="4.5" maxSpeed="1.3116802383350312" />
	<vType id="vType_car_26.36799840164993" accel="1.0" decel="5.0" sigma="0.0" length="4.5" maxSpeed="7.324444000458314" />
	<vType id="vType_car_36.53263248907233" accel="1.0" decel="5.0" sigma="0.0" length="4.5" maxSpeed="10.147953469186758" />
	<vType id="vType_car_4.29327361217861" accel="1.0" decel="5.0" sigma="0.0" length="4.5" maxSpeed="1.1925760033829473" />
	<vType id="vType_car_1.888819543202445" accel="1.0" decel="5.0" sigma="0.0" length="4.5" maxSpeed="0.5246720953340125" />
	<vType id="vType_car_5.646437498363372" accel="1.0" decel="5.0" sigma="0.0" length="4.5" maxSpeed="1.568454860656492" />
	<vType id="vType_car_4.299222200851427" accel="1.0" decel="5.0" sigma="0.0" length="4.5" maxSpeed="1.1942283891253964" />
	<vType id="vType_car_6.255991767098295" accel="1.0" decel="5.0" sigma="0.0" length="4.5" maxSpeed="1.7377754908606375" />
	<vType id="vType_car_22.906184374832964" accel="1.0" decel="5.0" sigma="0.0" length="4.5" maxSpeed="6.362828993009156" />
	<vType id="vType_car_18.413200900993743" accel="1.0" decel="5.0" sigma="0.0" length="4.5" maxSpeed="5.114778028053817" />
	<vType id="vType_car_7.05641025008837" accel="1.0" decel="5.0" sigma="0.0" length="4.5" maxSpeed="1.9601139583578806" />
	<vType id="vType_car_34.82390158407574" accel="1.0" decel="5.0" sigma="0.0" length="4.5" maxSpeed="9.673305995576595" />
	<vType id="vType_car_8.765786243585403" accel="1.0" decel="5.0" sigma="0.0" length="4.5" maxSpeed="2.4349406232181674" />
	<vType id="vType_car_25.92239744460367" accel="1.0" decel="5.0" sigma="0.0" length="4.5" maxSpeed="7.200665956834353" />
	<vType id="vType_car_21.513600239047204" accel="1.0" decel="5.0" sigma="0.0" length="4.5" maxSpeed="5.976000066402001" />
	<vType id="vType_car_27.41849279667069" accel="1.0" decel="5.0" sigma="0.0" length="4.5" maxSpeed="7.616247999075192" />
	<vType id="vType_car_3.7776390864048905" accel="1.0" decel="5.0" sigma="0.0" length="4.5" maxSpeed="1.0493441906680252" />
	<vType id="vType_car_11.6945245670528" accel="1.0" decel="5.0" sigma="0.0" length="4.5" maxSpeed="3.248479046403556" />
	<vType id="vType_car_4.085575884793274" accel="1.0" decel="5.0" sigma="0.0" length="4.5" maxSpeed="1.1348821902203539" />
	<vType id="vType_car_7.8805405602707745" accel="1.0" decel="5.0" sigma="0.0" length="4.5" maxSpeed="2.1890390445196597" />
	<vType id="vType_car_8.569770422926405" accel="1.0" decel="5.0" sigma="0.0" length="4.5" maxSpeed="2.3804917841462236" />
	<vType id="vType_car_6.492287616651692" accel="1.0" decel="5.0" sigma="0.0" length="4.5" maxSpeed="1.8034132268476921" />
	<vType id="vType_car_8.772628101307228" accel="1.0" decel="5.0" sigma="0.0" length="4.5" maxSpeed="2.436841139252008" />
	<vType id="vType_car_10.273354923915177" accel="1.0" decel="5.0" sigma="0.0" length="4.5" maxSpeed="2.853709701087549" />
	<vType id="vType_car_3.986133165692739" accel="1.0" decel="5.0" sigma="0.0" length="4.5" maxSpeed="1.1072592126924274" />
	<vType id="vType_car_9.542622016060026" accel="1.0" decel="5.0" sigma="0.0" length="4.5" maxSpeed="2.6507283377944515" />
	<vType id="vType_car_3.7776390864048897" accel="1.0" decel="5.0" sigma="0.0" length="4.5" maxSpeed="1.049344190668025" />
	<vType id="vType_car_11.293121445874306" accel="1.0" decel="5.0" sigma="0.0" length="4.5" maxSpeed="3.136978179409529" />
	<vType id="vType_car_2.7941502744011424" accel="1.0" decel="5.0" sigma="0.0" length="4.5" maxSpeed="0.7761528540003173" />
	<vType id="vType_car_9.391795599711244" accel="1.0" decel="5.0" sigma="0.0" length="4.5" maxSpeed="2.608832111030901" />
	<vType id="vType_car_11.712759832240396" accel="1.0" decel="5.0" sigma="0.0" length="4.5" maxSpeed="3.2535443978445544" />
	<vType id="vType_car_9.75547476941661" accel="1.0" decel="5.0" sigma="0.0" length="4.5" maxSpeed="2.709854102615725" />
	<vType id="vType_car_33.2845427668764" accel="1.0" decel="5.0" sigma="0.0" length="4.5" maxSpeed="9.245706324132334" />
	<vType id="vType_car_25.312316628959458" accel="1.0" decel="5.0" sigma="0.0" length="4.5" maxSpeed="7.031199063599849" />
	<vType id="vType_bus_9.527288084374279" accel="1.0" decel="5.0" sigma="0.0" length="13" maxSpeed="2.6464689123261884" />
	<vType id="vType_car_31.04199187545307" accel="1.0" decel="5.0" sigma="0.0" length="4.5" maxSpeed="8.622775520959186" />
	<vType id="vType_car_14.392154462785427" accel="1.0" decel="5.0" sigma="0.0" length="4.5" maxSpeed="3.997820684107063" />
	<vType id="vType_car_4.001174706881978" accel="1.0" decel="5.0" sigma="0.0" length="4.5" maxSpeed="1.1114374185783271" />
	<vType id="vType_car_8.964228781729398" accel="1.0" decel="5.0" sigma="0.0" length="4.5" maxSpeed="2.490063550480388" />
	<vType id="vType_car_23.676539100463323" accel="1.0" decel="5.0" sigma="0.0" length="4.5" maxSpeed="6.576816416795367" />
	<vType id="vType_car_9.898051389202356" accel="1.0" decel="5.0" sigma="0.0" length="4.5" maxSpeed="2.7494587192228765" />
	<vType id="vType_truck_12.484800446231345" accel="1.0" decel="5.0" sigma="0.0" length="8" maxSpeed="3.4680001239531513" />
	<vType id="vType_car_8.82388255157902" accel="1.0" decel="5.0" sigma="0.0" length="4.5" maxSpeed="2.451078486549728" />
	<vType id="vType_car_35.098761352072" accel="1.0" decel="5.0" sigma="0.0" length="4.5" maxSpeed="9.749655931131112" />
	<vType id="vType_car_31.974866233881524" accel="1.0" decel="5.0" sigma="0.0" length="4.5" maxSpeed="8.881907287189312" />
	<vType id="vType_car_10.874053524867861" accel="1.0" decel="5.0" sigma="0.0" length="4.5" maxSpeed="3.020570423574406" />
	<vType id="vType_car_34.233145103119334" accel="1.0" decel="5.0" sigma="0.0" length="4.5" maxSpeed="9.509206973088704" />
	<vType id="vType_truck_25.487155888718338" accel="1.0" decel="5.0" sigma="0.0" length="8" maxSpeed="7.079765524643983" />
	<vType id="vType_car_33.27704332611694" accel="1.0" decel="5.0" sigma="0.0" length="4.5" maxSpeed="9.243623146143594" />
	<vType id="vType_car_16.250417335213992" accel="1.0" decel="5.0" sigma="0.0" length="4.5" maxSpeed="4.51400481533722" />
	<vType id="vType_car_4.243649753579908" accel="1.0" decel="5.0" sigma="0.0" length="4.5" maxSpeed="1.1787915982166413" />
	<vType id="vType_car_15.013536099572105" accel="1.0" decel="5.0" sigma="0.0" length="4.5" maxSpeed="4.1704266943255845" />
	<vType id="vType_car_23.917333408831347" accel="1.0" decel="5.0" sigma="0.0" length="4.5" maxSpeed="6.643703724675374" />
	<vType id="vType_car_16.453522585989155" accel="1.0" decel="5.0" sigma="0.0" length="4.5" maxSpeed="4.570422940552543" />
	<vType id="vType_car_6.097696974783546" accel="1.0" decel="5.0" sigma="0.0" length="4.5" maxSpeed="1.6938047152176516" />
	<vType id="vType_car_34.4042430505602" accel="1.0" decel="5.0" sigma="0.0" length="4.5" maxSpeed="9.556734180711166" />
	<vType id="vType_car_19.967598445362523" accel="1.0" decel="5.0" sigma="0.0" length="4.5" maxSpeed="5.546555123711812" />
	<vType id="vType_car_17.76853466302071" accel="1.0" decel="5.0" sigma="0.0" length="4.5" maxSpeed="4.935704073061308" />
	<vType id="vType_car_52.88694720966846" accel="1.0" decel="5.0" sigma="0.0" length="4.5" maxSpeed="14.69081866935235" />
	<vType id="vType_car_18.830846710310855" accel="1.0" decel="5.0" sigma="0.0" length="4.5" maxSpeed="5.230790752864126" />
	<vType id="vType_car_23.63817517434232" accel="1.0" decel="5.0" sigma="0.0" length="4.5" maxSpeed="6.566159770650644" />
	<vType id="vType_car_6.390243931486247" accel="1.0" decel="5.0" sigma="0.0" length="4.5" maxSpeed="1.7750677587461796" />
	<vType id="vType_car_17.043448208063786" accel="1.0" decel="5.0" sigma="0.0" length="4.5" maxSpeed="4.734291168906608" />
	<vType id="vType_car_4.3173018130341605" accel="1.0" decel="5.0" sigma="0.0" length="4.5" maxSpeed="1.1992505036206" />
	<vType id="vType_car_20.472562120050874" accel="1.0" decel="5.0" sigma="0.0" length="4.5" maxSpeed="5.686822811125243" />
	<vType id="vType_car_27.98572430922559" accel="1.0" decel="5.0" sigma="0.0" length="4.5" maxSpeed="7.773812308118218" />
	<vType id="vType_car_20.13608015833869" accel="1.0" decel="5.0" sigma="0.0" length="4.5" maxSpeed="5.5933555995385245" />
	<vType id="vType_car_30.907786779949586" accel="1.0" decel="5.0" sigma="0.0" length="4.5" maxSpeed="8.585496327763774" />
	<vType id="vType_car_20.217751272209423" accel="1.0" decel="5.0" sigma="0.0" length="4.5" maxSpeed="5.616042020058173" />
	<vType id="vType_car_30.828525799737847" accel="1.0" decel="5.0" sigma="0.0" length="4.5" maxSpeed="8.563479388816068" />
	<vType id="vType_car_19.74610180483195" accel="1.0" decel="5.0" sigma="0.0" length="4.5" maxSpeed="5.4850282791199865" />
	<vType id="vType_car_27.234988682206655" accel="1.0" decel="5.0" sigma="0.0" length="4.5" maxSpeed="7.565274633946293" />
	<vType id="vType_car_19.790102107762674" accel="1.0" decel="5.0" sigma="0.0" length="4.5" maxSpeed="5.497250585489632" />
	<vType id="vType_car_18.741853838100695" accel="1.0" decel="5.0" sigma="0.0" length="4.5" maxSpeed="5.206070510583526" />
	<vType id="vType_car_3.964269180638032" accel="1.0" decel="5.0" sigma="0.0" length="4.5" maxSpeed="1.1011858835105643" />
	<vType id="vType_car_15.296750259383453" accel="1.0" decel="5.0" sigma="0.0" length="4.5" maxSpeed="4.249097294273181" />
	<vType id="vType_car_7.550382893202296" accel="1.0" decel="5.0" sigma="0.0" length="4.5" maxSpeed="2.0973285814450824" />
	<vType id="vType_car_5.886206876137728" accel="1.0" decel="5.0" sigma="0.0" length="4.5" maxSpeed="1.6350574655938133" />
	<vType id="vType_car_4.19796278173624" accel="1.0" decel="5.0" sigma="0.0" length="4.5" maxSpeed="1.166100772704511" />
	<vType id="vType_car_24.250524142453354" accel="1.0" decel="5.0" sigma="0.0" length="4.5" maxSpeed="6.736256706237043" />
	<vType id="vType_car_22.560728170821093" accel="1.0" decel="5.0" sigma="0.0" length="4.5" maxSpeed="6.2668689363391925" />
	<vType id="vType_car_21.49234592718072" accel="1.0" decel="5.0" sigma="0.0" length="4.5" maxSpeed="5.9700960908835325" />
	<vType id="vType_car_3.567770248271285" accel="1.0" decel="5.0" sigma="0.0" length="4.5" maxSpeed="0.9910472911864681" />
	<vType id="vType_car_24.0958575846845" accel="1.0" decel="5.0" sigma="0.0" length="4.5" maxSpeed="6.693293773523472" />
	<vType id="vType_car_3.9304446949507557" accel="1.0" decel="5.0" sigma="0.0" length="4.5" maxSpeed="1.0917901930418765" />
	<vType id="vType_car_30.329514769490387" accel="1.0" decel="5.0" sigma="0.0" length="4.5" maxSpeed="8.42486521374733" />
	<vType id="vType_car_34.692918791672355" accel="1.0" decel="5.0" sigma="0.0" length="4.5" maxSpeed="9.636921886575655" />
	<vType id="vType_car_67.35140331868102" accel="1.0" decel="5.0" sigma="0.0" length="4.5" maxSpeed="18.70872314407806" />