<?xml version='1.0' encoding='utf-8'?>
<routes><vType id="vType_car_9.259685196687869" accel="1.0" decel="5.0" sigma="0.0" length="4.5" maxSpeed="2.5721347768577414" /><vType id="vType_car_12.644369844189589" accel="1.0" decel="5.0" sigma="0.0" length="4.5" maxSpeed="3.51232495671933" /><vType id="vType_car_15.101721113919027" accel="1.0" decel="5.0" sigma="0.0" length="4.5" maxSpeed="4.194922531644174" /><vType id="vType_car_15.2456469118258" accel="1.0" decel="5.0" sigma="0.0" length="4.5" maxSpeed="4.234901919951611" /><vType id="vType_car_9.903659617726372" accel="1.0" decel="5.0" sigma="0.0" length="4.5" maxSpeed="2.751016560479548" /><vType id="vType_car_10.206188215589144" accel="1.0" decel="5.0" sigma="0.0" length="4.5" maxSpeed="2.8350522821080957" /><vType id="vType_car_14.54417015622951" accel="1.0" decel="5.0" sigma="0.0" length="4.5" maxSpeed="4.040047265619308" /><vType id="vType_car_7.35149654994652" accel="1.0" decel="5.0" sigma="0.0" length="4.5" maxSpeed="2.0420823749851444" /><vType id="vType_car_10.661133537942119" accel="1.0" decel="5.0" sigma="0.0" length="4.5" maxSpeed="2.9614259827616998" /><vType id="vType_car_10.263648282487221" accel="1.0" decel="5.0" sigma="0.0" length="4.5" maxSpeed="2.851013411802006" /><vType id="vType_car_11.442144015887973" accel="1.0" decel="5.0" sigma="0.0" length="4.5" maxSpeed="3.1783733377466588" /><vType id="vType_car_21.127547155034936" accel="1.0" decel="5.0" sigma="0.0" length="4.5" maxSpeed="5.868763098620815" /><vType id="vType_car_9.057035909539582" accel="1.0" decel="5.0" sigma="0.0" length="4.5" maxSpeed="2.5158433082054397" /><vType id="vType_car_2.7116214211707153" accel="1.0" decel="5.0" sigma="0.0" length="4.5" maxSpeed="0.7532281725474209" /><vType id="vType_car_2.9959025108754695" accel="1.0" decel="5.0" sigma="0.0" length="4.5" maxSpeed="0.8321951419098527" /><vType id="vType_car_2.766589646096017" accel="1.0" decel="5.0" sigma="0.0" length="4.5" maxSpeed="0.7684971239155602" /><vType id="vType_car_2.5990812886175463" accel="1.0" decel="5.0" sigma="0.0" length="4.5" maxSpeed="0.721967024615985" /><vType id="vType_car_9.264112186154906" accel="1.0" decel="5.0" sigma="0.0" length="4.5" maxSpeed="2.57336449615414" /><vType id="vType_car_53.62369082629405" accel="1.0" decel="5.0" sigma="0.0" length="4.5" maxSpeed="14.89546967397057" /><vType id="vType_car_0.13832948230480085" accel="1.0" decel="5.0" sigma="0.0" length="4.5" maxSpeed="0.03842485619577801" /><vType id="vType_truck_5.436133609458569" accel="1.0" decel="5.0" sigma="0.0" length="8" maxSpeed="1.5100371137384914" /><vType id="vType_car_6.107933280883211" accel="1.0" decel="5.0" sigma="0.0" length="4.5" maxSpeed="1.6966481335786696" /><vType id="vType_car_33.50260235317256" accel="1.0" decel="5.0" sigma="0.0" length="4.5" maxSpeed="9.306278431436823" /><vType id="vType_car_2.6440182283398954" accel="1.0" decel="5.0" sigma="0.0" length="4.5" maxSpeed="0.7344495078721932" /><vType id="vType_car_8.08068167084237" accel="1.0" decel="5.0" sigma="0.0" length="4.5" maxSpeed="2.244633797456214" /><vType id="vType_car_43.046206340387656" accel="1.0" decel="5.0" sigma="0.0" length="4.5" maxSpeed="11.957279538996572" /><vType id="vType_car_18.783083770226455" accel="1.0" decel="5.0" sigma="0.0" length="4.5" maxSpeed="5.217523269507349" /><vType id="vType_car_9.347612112271463" accel="1.0" decel="5.0" sigma="0.0" length="4.5" maxSpeed="2.5965589200754065" /><vType id="vType_car_10.389671564364273" accel="1.0" decel="5.0" sigma="0.0" length="4.5" maxSpeed="2.8860198789900755" /><vType id="vType_car_3.3395691225629927" accel="1.0" decel="5.0" sigma="0.0" length="4.5" maxSpeed="0.9276580896008313" /><vType id="vType_car_62.288770776762576" accel="1.0" decel="5.0" sigma="0.0" length="4.5" maxSpeed="17.302436326878492" /><vType id="vType_car_7.873777583961858" accel="1.0" decel="5.0" sigma="0.0" length="4.5" maxSpeed="2.187160439989405" /><vType id="vType_car_6.100832238223228" accel="1.0" decel="5.0" sigma="0.0" length="4.5" maxSpeed="1.6946756217286745" /><vType id="vType_truck_5.577072302947763" accel="1.0" decel="5.0" sigma="0.0" length="8" maxSpeed="1.549186750818823" /><vType id="vType_car_6.283384587192804" accel="1.0" decel="5.0" sigma="0.0" length="4.5" maxSpeed="1.7453846075535564" /><vType id="vType_car_40.69492978860179" accel="1.0" decel="5.0" sigma="0.0" length="4.5" maxSpeed="11.304147163500497" /><vType id="vType_car_21.04314301567974" accel="1.0" decel="5.0" sigma="0.0" length="4.5" maxSpeed="5.845317504355483" /><vType id="vType_car_2.759703679559759" accel="1.0" decel="5.0" sigma="0.0" length="4.5" maxSpeed="0.7665843554332664" /><vType id="vType_car_14.106894591547347" accel="1.0" decel="5.0" sigma="0.0" length="4.5" maxSpeed="3.918581830985374" /><vType id="vType_car_8.351371835435957" accel="1.0" decel="5.0" sigma="0.0" length="4.5" maxSpeed="2.3198255098433216" /><vType id="vType_car_8.579737407227647" accel="1.0" decel="5.0" sigma="0.0" length="4.5" maxSpeed="2.3832603908965684" /><vType id="vType_car_13.124476006804885" accel="1.0" decel="5.0" sigma="0.0" length="4.5" maxSpeed="3.6456877796680236" /><vType id="vType_car_9.124210678428836" accel="1.0" decel="5.0" sigma="0.0" length="4.5" maxSpeed="2.534502966230232" /><vType id="vType_car_7.823628381316726" accel="1.0" decel="5.0" sigma="0.0" length="4.5" maxSpeed="2.173230105921313" /><vType id="vType_car_8.264872040243347" accel="1.0" decel="5.0" sigma="0.0" length="4.5" maxSpeed="2.2957977889564853" /><vType id="vType_car_16.649488723427563" accel="1.0" decel="5.0" sigma="0.0" length="4.5" maxSpeed="4.624857978729879" /><vType id="vType_car_1.8991280573861278" accel="1.0" decel="5.0" sigma="0.0" length="4.5" maxSpeed="0.5275355714961466" /><vType id="vType_car_6.37109196315494" accel="1.0" decel="5.0" sigma="0.0" length="4.5" maxSpeed="1.7697477675430386" /><vType id="vType_car_27.924858229566404" accel="1.0" decel="5.0" sigma="0.0" length="4.5" maxSpeed="7.756905063768445" /><vType id="vType_car_3.5978463816932638" accel="1.0" decel="5.0" sigma="0.0" length="4.5" maxSpeed="0.9994017726925732" /><vType id="vType_car_1.9366127522672119" accel="1.0" decel="5.0" sigma="0.0" length="4.5" maxSpeed="0.5379479867408922" /><vType id="vType_car_22.30495881060015" accel="1.0" decel="5.0" sigma="0.0" length="4.5" maxSpeed="6.195821891833376" /><vType id="vType_car_35.07482217434854" accel="1.0" decel="5.0" sigma="0.0" length="4.5" maxSpeed="9.743006159541261" /><vType id="vType_car_21.412582665894373" accel="1.0" decel="5.0" sigma="0.0" length="4.5" maxSpeed="5.947939629415104" /><vType id="vType_car_10.647620788869999" accel="1.0" decel="5.0" sigma="0.0" length="4.5" maxSpeed="2.9576724413527775" /><vType id="vType_car_10.307108042970937" accel="1.0" decel="5.0" sigma="0.0" length="4.5" maxSpeed="2.8630855674919267" /><vType id="vType_car_48.05096315645866" accel="1.0" decel="5.0" sigma="0.0" length="4.5" maxSpeed="13.34748976568296" /><vType id="vType_car_1.8646004046747109" accel="1.0" decel="5.0" sigma="0.0" length="4.5" maxSpeed="0.5179445568540864" /><vType id="vType_car_5.86427690094993" accel="1.0" decel="5.0" sigma="0.0" length="4.5" maxSpeed="1.628965805819425" /><vType id="vType_car_47.82447672443558" accel="1.0" decel="5.0" sigma="0.0" length="4.5" maxSpeed="13.284576867898771" /><vType id="vType_car_3.1116120327539574" accel="1.0" decel="5.0" sigma="0.0" length="4.5" maxSpeed="0.8643366757649882" /><vType id="vType_car_48.047688925302154" accel="1.0" decel="5.0" sigma="0.0" length="4.5" maxSpeed="13.346580257028375" /><vType id="vType_car_2.0749422345720125" accel="1.0" decel="5.0" sigma="0.0" length="4.5" maxSpeed="0.5763728429366701" /><vType id="vType_truck_10.628727016255606" accel="1.0" decel="5.0" sigma="0.0" length="8" maxSpeed="2.9524241711821126" /><vType id="vType_car_8.747716167069601" accel="1.0" decel="5.0" sigma="0.0" length="4.5" maxSpeed="2.429921157519334" /><vType id="vType_car_12.074088732251328" accel="1.0" decel="5.0" sigma="0.0" length="4.5" maxSpeed="3.3539135367364796" /><vType id="vType_car_16.326353444394105" accel="1.0" decel="5.0" sigma="0.0" length="4.5" maxSpeed="4.535098178998362" /><vType id="vType_car_19.427231428376306" accel="1.0" decel="5.0" sigma="0.0" length="4.5" maxSpeed="5.396453174548974" /><vType id="vType_car_11.827211868861276" accel="1.0" decel="5.0" sigma="0.0" length="4.5" maxSpeed="3.2853366302392435" /><vType id="vType_car_17.168066513805908" accel="1.0" decel="5.0" sigma="0.0" length="4.5" maxSpeed="4.768907364946085" /><vType id="vType_car_16.526759796833144" accel="1.0" decel="5.0" sigma="0.0" length="4.5" maxSpeed="4.590766610231428" /><vType id="vType_car_3.3852178975477947" accel="1.0" decel="5.0" sigma="0.0" length="4.5" maxSpeed="0.9403383048743874" /><vType id="vType_car_11.427101512680425" accel="1.0" decel="5.0" sigma="0.0" length="4.5" maxSpeed="3.174194864633451" /><vType id="vType_car_4.098090750681675" accel="1.0" decel="5.0" sigma="0.0" length="4.5" maxSpeed="1.138358541856021" /><vType id="vType_car_19.803682291373747" accel="1.0" decel="5.0" sigma="0.0" length="4.5" maxSpeed="5.501022858714929" /><vType id="vType_car_12.369655191242057" accel="1.0" decel="5.0" sigma="0.0" length="4.5" maxSpeed="3.436015330900571" /><vType id="vType_car_18.915881652741803" accel="1.0" decel="5.0" sigma="0.0" length="4.5" maxSpeed="5.254411570206056" /><vType id="vType_car_4.399758638608049" accel="1.0" decel="5.0" sigma="0.0" length="4.5" maxSpeed="1.2221551773911248" /><vType id="vType_car_13.801050796307866" accel="1.0" decel="5.0" sigma="0.0" length="4.5" maxSpeed="3.8336252211966295" /><vType id="vType_car_4.9892021510891995" accel="1.0" decel="5.0" sigma="0.0" length="4.5" maxSpeed="1.3858894864136666" /><vType id="vType_car_20.992162826248574" accel="1.0" decel="5.0" sigma="0.0" length="4.5" maxSpeed="5.831156340624604" /><vType id="vType_car_2.937322450956116" accel="1.0" decel="5.0" sigma="0.0" length="4.5" maxSpeed="0.8159229030433656" /><vType id="vType_car_24.04977290376002" accel="1.0" decel="5.0" sigma="0.0" length="4.5" maxSpeed="6.680492473266671" /><vType id="vType_car_22.85452688041543" accel="1.0" decel="5.0" sigma="0.0" length="4.5" maxSpeed="6.348479689004286" /><vType id="vType_bus_16.361670467524565" accel="1.0" decel="5.0" sigma="0.0" length="13" maxSpeed="4.544908463201268" /><vType id="vType_car_23.35079583709649" accel="1.0" decel="5.0" sigma="0.0" length="4.5" maxSpeed="6.486332176971247" /><vType id="vType_car_34.441786669613805" accel="1.0" decel="5.0" sigma="0.0" length="4.5" maxSpeed="9.567162963781612" /><vType id="vType_car_26.890799499829736" accel="1.0" decel="5.0" sigma="0.0" length="4.5" maxSpeed="7.469666527730482" /><vType id="vType_car_14.676202521681565" accel="1.0" decel="5.0" sigma="0.0" length="4.5" maxSpeed="4.076722922689323" /><vType id="vType_car_18.352728354958373" accel="1.0" decel="5.0" sigma="0.0" length="4.5" maxSpeed="5.097980098599548" /><vType id="vType_car_23.22932256822239" accel="1.0" decel="5.0" sigma="0.0" length="4.5" maxSpeed="6.452589602283997" /><vType id="vType_car_10.372177445704516" accel="1.0" decel="5.0" sigma="0.0" length="4.5" maxSpeed="2.8811604015845877" /><vType id="vType_car_24.215921128335168" accel="1.0" decel="5.0" sigma="0.0" length="4.5" maxSpeed="6.72664475787088" /><vType id="vType_car_2.8559286974136024" accel="1.0" decel="5.0" sigma="0.0" length="4.5" maxSpeed="0.793313527059334" /><vType id="vType_car_25.484083548079866" accel="1.0" decel="5.0" sigma="0.0" length="4.5" maxSpeed="7.0789120966888515" /><vType id="vType_car_19.308300063841635" accel="1.0" decel="5.0" sigma="0.0" length="4.5" maxSpeed="5.3634166844004545" /><vType id="vType_car_30.492064933914534" accel="1.0" decel="5.0" sigma="0.0" length="4.5" maxSpeed="8.470018037198482" /><vType id="vType_car_26.476826617356274" accel="1.0" decel="5.0" sigma="0.0" length="4.5" maxSpeed="7.354674060376743" /><vType id="vType_car_2.1517919469635687" accel="1.0" decel="5.0" sigma="0.0" length="4.5" maxSpeed="0.5977199852676579" /><vType id="vType_car_14.447912017479393" accel="1.0" decel="5.0" sigma="0.0" length="4.5" maxSpeed="4.013308893744275" /><vType id="vType_car_2.670503606268347" accel="1.0" decel="5.0" sigma="0.0" length="4.5" maxSpeed="0.741806557296763" /><vType id="vType_car_29.840391787921476" accel="1.0" decel="5.0" sigma="0.0" length="4.5" maxSpeed="8.288997718867076" /><vType id="vType_car_12.614230447092563" accel="1.0" decel="5.0" sigma="0.0" length="4.5" maxSpeed="3.5039529019701563" /><vType id="vType_car_20.284637328305816" accel="1.0" decel="5.0" sigma="0.0" length="4.5" maxSpeed="5.634621480084949" /><vType id="vType_car_1.8443930973973446" accel="1.0" decel="5.0" sigma="0.0" length="4.5" maxSpeed="0.5123314159437068" /><vType id="vType_car_15.663079292625964" accel="1.0" decel="5.0" sigma="0.0" length="4.5" maxSpeed="4.350855359062768" /><vType id="vType_car_2.1261753761663833" accel="1.0" decel="5.0" sigma="0.0" length="4.5" maxSpeed="0.5906042711573287" /><vType id="vType_car_47.11718006127431" accel="1.0" decel="5.0" sigma="0.0" length="4.5" maxSpeed="13.088105572576197" /><vType id="vType_car_5.498607328307801" accel="1.0" decel="5.0" sigma="0.0" length="4.5" maxSpeed="1.5273909245299446" /><vType id="vType_car_20.293383285252315" accel="1.0" decel="5.0" sigma="0.0" length="4.5" maxSpeed="5.637050912570087" /><vType id="vType_car_15.594203514073065" accel="1.0" decel="5.0" sigma="0.0" length="4.5" maxSpeed="4.331723198353629" /><vType id="vType_car_2.9177322652499065" accel="1.0" decel="5.0" sigma="0.0" length="4.5" maxSpeed="0.8104811847916407" /><vType id="vType_car_4.11526154797769" accel="1.0" decel="5.0" sigma="0.0" length="4.5" maxSpeed="1.1431282077715805" /><vType id="vType_car_22.641913723118066" accel="1.0" decel="5.0" sigma="0.0" length="4.5" maxSpeed="6.2894204786439065" /><vType id="vType_car_4.011666259024551" accel="1.0" decel="5.0" sigma="0.0" length="4.5" maxSpeed="1.114351738617931" /><vType id="vType_car_6.11764186267697" accel="1.0" decel="5.0" sigma="0.0" length="4.5" maxSpeed="1.6993449618547138" /><vType id="vType_car_3.1393477601090516" accel="1.0" decel="5.0" sigma="0.0" length="4.5" maxSpeed="0.8720410444747365" /><vType id="vType_car_23.978296694156825" accel="1.0" decel="5.0" sigma="0.0" length="4.5" maxSpeed="6.660637970599118" /><vType id="vType_car_25.86065200769146" accel="1.0" decel="5.0" sigma="0.0" length="4.5" maxSpeed="7.183514446580961" /><vType id="vType_car_24.432208119279142" accel="1.0" decel="5.0" sigma="0.0" length="4.5" maxSpeed="6.78672447757754" /><vType id="vType_car_4.670206956904052" accel="1.0" decel="5.0" sigma="0.0" length="4.5" maxSpeed="1.2972797102511255" /><vType id="vType_car_2.389327421628378" accel="1.0" decel="5.0" sigma="0.0" length="4.5" maxSpeed="0.6637020615634384" /><vType id="vType_car_21.924209837259053" accel="1.0" decel="5.0" sigma="0.0" length="4.5" maxSpeed="6.090058288127515" /><vType id="vType_car_15.553994969471546" accel="1.0" decel="5.0" sigma="0.0" length="4.5" maxSpeed="4.320554158186541" /><vType id="vType_car_27.894441028209652" accel="1.0" decel="5.0" sigma="0.0" length="4.5" maxSpeed="7.748455841169347" /><vType id="vType_car_13.319204324614454" accel="1.0" decel="5.0" sigma="0.0" length="4.5" maxSpeed="3.6997789790595705" /><vType id="vType_car_10.483190520360223" accel="1.0" decel="5.0" sigma="0.0" length="4.5" maxSpeed="2.9119973667667285" /><vType id="vType_car_7.782180967189514" accel="1.0" decel="5.0" sigma="0.0" length="4.5" maxSpeed="2.1617169353304204" /><vType id="vType_car_8.455101702648479" accel="1.0" decel="5.0" sigma="0.0" length="4.5" maxSpeed="2.3486393618467996" /><vType id="vType_car_2.8593040676712063" accel="1.0" decel="5.0" sigma="0.0" length="4.5" maxSpeed="0.7942511299086684" /><vType id="vType_car_10.03256142974056" accel="1.0" decel="5.0" sigma="0.0" length="4.5" maxSpeed="2.7868226193723777" /><vType id="vType_car_7.063414368436244" accel="1.0" decel="5.0" sigma="0.0" length="4.5" maxSpeed="1.9620595467878454" /><vType id="vType_car_7.649495096318837" accel="1.0" decel="5.0" sigma="0.0" length="4.5" maxSpeed="2.1248597489774546" /><vType id="vType_car_7.602705070143292" accel="1.0" decel="5.0" sigma="0.0" length="4.5" maxSpeed="2.111862519484248" /><vType id="vType_car_12.160883081338481" accel="1.0" decel="5.0" sigma="0.0" length="4.5" maxSpeed="3.378023078149578" /><vType id="vType_car_3.688786194794689" accel="1.0" decel="5.0" sigma="0.0" length="4.5" maxSpeed="1.0246628318874136" /><vType id="vType_car_8.554074824105614" accel="1.0" decel="5.0" sigma="0.0" length="4.5" maxSpeed="2.376131895584893" /><vType id="vType_car_6.71338292842887" accel="1.0" decel="5.0" sigma="0.0" length="4.5" maxSpeed="1.8648285912302416" /><vType id="vType_car_4.035872611691035" accel="1.0" decel="5.0" sigma="0.0" length="4.5" maxSpeed="1.1210757254697319" /><vType id="vType_car_58.50546801892703" accel="1.0" decel="5.0" sigma="0.0" length="4.5" maxSpeed="16.251518894146397" /><vType id="vType_car_5.808722085848543" accel="1.0" decel="5.0" sigma="0.0" length="4.5" maxSpeed="1.6135339127357062" /><vType id="vType_car_28.186305624697702" accel="1.0" decel="5.0" sigma="0.0" length="4.5" maxSpeed="7.829529340193806" /><vType id="vType_car_34.56430927526475" accel="1.0" decel="5.0" sigma="0.0" length="4.5" maxSpeed="9.601197020906874" /><vType id="vType_car_39.73436632132389" accel="1.0" decel="5.0" sigma="0.0" length="4.5" maxSpeed="11.037323978145524" /><vType id="vType_car_10.471583002082038" accel="1.0" decel="5.0" sigma="0.0" length="4.5" maxSpeed="2.9087730561338994" /><vType id="vType_car_33.936037353702346" accel="1.0" decel="5.0" sigma="0.0" length="4.5" maxSpeed="9.426677042695095" /><vType id="vType_car_49.930451627590195" accel="1.0" decel="5.0" sigma="0.0" length="4.5" maxSpeed="13.869569896552832" /><vType id="vType_car_3.053079384329505" accel="1.0" decel="5.0" sigma="0.0" length="4.5" maxSpeed="0.8480776067581958" /><vType id="vType_car_40.818609919427146" accel="1.0" decel="5.0" sigma="0.0" length="4.5" maxSpeed="11.33850275539643" /><vType id="vType_car_37.125516621567016" accel="1.0" decel="5.0" sigma="0.0" length="4.5" maxSpeed="10.312643505990838" /><vType id="vType_car_9.550884135894501" accel="1.0" decel="5.0" sigma="0.0" length="4.5" maxSpeed="2.653023371081806" /><vType id="vType_car_1.8956262389917153" accel="1.0" decel="5.0" sigma="0.0" length="4.5" maxSpeed="0.5265628441643654" /><vType id="vType_car_39.3303585047111" accel="1.0" decel="5.0" sigma="0.0" length="4.5" maxSpeed="10.925099584641972" /><vType id="vType_car_33.248717801123824" accel="1.0" decel="5.0" sigma="0.0" length="4.5" maxSpeed="9.235754944756618" /><vType id="vType_car_32.32408166822506" accel="1.0" decel="5.0" sigma="0.0" length="4.5" maxSpeed="8.978911574506961" /><vType id="vType_car_30.84015840955356" accel="1.0" decel="5.0" sigma="0.0" length="4.5" maxSpeed="8.566710669320432" /><vType id="vType_car_3.8311997190899265" accel="1.0" decel="5.0" sigma="0.0" length="4.5" maxSpeed="1.0642221441916462" /><vType id="vType_car_5.50389791402879" accel="1.0" decel="5.0" sigma="0.0" length="4.5" maxSpeed="1.5288605316746637" /><vType id="vType_car_2.3272447983994513" accel="1.0" decel="5.0" sigma="0.0" length="4.5" maxSpeed="0.646456888444292" /><vType id="vType_car_1.862837028371318" accel="1.0" decel="5.0" sigma="0.0" length="4.5" maxSpeed="0.5174547301031439" /><vType id="vType_car_3.3372961237654803" accel="1.0" decel="5.0" sigma="0.0" length="4.5" maxSpeed="0.9270267010459667" /><vType id="vType_car_2.630813387248411" accel="1.0" decel="5.0" sigma="0.0" length="4.5" maxSpeed="0.7307814964578919" /><vType id="vType_bus_25.102037703780443" accel="1.0" decel="5.0" sigma="0.0" length="13" maxSpeed="6.9727882510501225" /><vType id="vType_car_6.186282514517781" accel="1.0" decel="5.0" sigma="0.0" length="4.5" maxSpeed="1.7184118095882723" /><vType id="vType_car_9.371028644368643" accel="1.0" decel="5.0" sigma="0.0" length="4.5" maxSpeed="2.603063512324623" /><vType id="vType_car_3.9080026014349456" accel="1.0" decel="5.0" sigma="0.0" length="4.5" maxSpeed="1.0855562781763737" /><vType id="vType_car_2.195706068330172" accel="1.0" decel="5.0" sigma="0.0" length="4.5" maxSpeed="0.6099183523139367" /><vType id="vType_car_18.88798217299954" accel="1.0" decel="5.0" sigma="0.0" length="4.5" maxSpeed="5.246661714722094" /><vType id="vType_car_10.09971178272355" accel="1.0" decel="5.0" sigma="0.0" length="4.5" maxSpeed="2.805475495200986" /><vType id="vType_car_17.59490973313515" accel="1.0" decel="5.0" sigma="0.0" length="4.5" maxSpeed="4.887474925870875" /><vType id="vType_car_2.4193693857093814" accel="1.0" decel="5.0" sigma="0.0" length="4.5" maxSpeed="0.6720470515859392" /><vType id="vType_car_2.680419504946048" accel="1.0" decel="5.0" sigma="0.0" length="4.5" maxSpeed="0.7445609735961245" /><vType id="vType_car_14.679421647343784" accel="1.0" decel="5.0" sigma="0.0" length="4.5" maxSpeed="4.077617124262162" /><vType id="vType_car_15.007024010569985" accel="1.0" decel="5.0" sigma="0.0" length="4.5" maxSpeed="4.168617780713885" /><vType id="vType_car_24.55088251775151" accel="1.0" decel="5.0" sigma="0.0" length="4.5" maxSpeed="6.819689588264309" /><vType id="vType_car_11.758540131031522" accel="1.0" decel="5.0" sigma="0.0" length="4.5" maxSpeed="3.266261147508756" /><vType id="vType_car_15.697086743413157" accel="1.0" decel="5.0" sigma="0.0" length="4.5" maxSpeed="4.360301873170322" /><vType id="vType_car_21.699201812079654" accel="1.0" decel="5.0" sigma="0.0" length="4.5" maxSpeed="6.027556058911014" /><vType id="vType_car_12.075444552511797" accel="1.0" decel="5.0" sigma="0.0" length="4.5" maxSpeed="3.354290153475499" /><vType id="vType_car_45.577490669798216" accel="1.0" decel="5.0" sigma="0.0" length="4.5" maxSpeed="12.660414074943949" /><vType id="vType_car_13.784786048327428" accel="1.0" decel="5.0" sigma="0.0" length="4.5" maxSpeed="3.8291072356465077" /><vType id="vType_car_3.7782911564888004" accel="1.0" decel="5.0" sigma="0.0" length="4.5" maxSpeed="1.049525321246889" /><vType id="vType_car_11.306586267614502" accel="1.0" decel="5.0" sigma="0.0" length="4.5" maxSpeed="3.140718407670695" /><vType id="vType_car_3.7782273002104745" accel="1.0" decel="5.0" sigma="0.0" length="4.5" maxSpeed="1.0495075833917984" /><vType id="vType_car_50.23636090809658" accel="1.0" decel="5.0" sigma="0.0" length="4.5" maxSpeed="13.954544696693494" /><vType id="vType_car_24.603161118465298" accel="1.0" decel="5.0" sigma="0.0" length="4.5" maxSpeed="6.834211421795916" /><vType id="vType_car_13.453685514644377" accel="1.0" decel="5.0" sigma="0.0" length="4.5" maxSpeed="3.7371348651789935" /><vType id="vType_car_3.9125485990299684" accel="1.0" decel="5.0" sigma="0.0" length="4.5" maxSpeed="1.0868190552861023" /><vType id="vType_car_9.52394050107294" accel="1.0" decel="5.0" sigma="0.0" length="4.5" maxSpeed="2.645539028075816" /><vType id="vType_car_14.148362081717615" accel="1.0" decel="5.0" sigma="0.0" length="4.5" maxSpeed="3.930100578254893" /><vType id="vType_car_13.879566785009914" accel="1.0" decel="5.0" sigma="0.0" length="4.5" maxSpeed="3.855435218058309" /><vType id="vType_car_13.322778805351934" accel="1.0" decel="5.0" sigma="0.0" length="4.5" maxSpeed="3.7007718903755373" /><vType id="vType_car_3.3826622704292695" accel="1.0" decel="5.0" sigma="0.0" length="4.5" maxSpeed="0.9396284084525748" /><vType id="vType_car_2.9725132565712804" accel="1.0" decel="5.0" sigma="0.0" length="4.5" maxSpeed="0.8256981268253556" /><vType id="vType_car_9.332761855359808" accel="1.0" decel="5.0" sigma="0.0" length="4.5" maxSpeed="2.5924338487110576" /><vType id="vType_car_14.427118603156746" accel="1.0" decel="5.0" sigma="0.0" length="4.5" maxSpeed="4.007532945321318" /><vType id="vType_car_2.4701693268714435" accel="1.0" decel="5.0" sigma="0.0" length="4.5" maxSpeed="0.6861581463531787" /><vType id="vType_car_18.499325352110006" accel="1.0" decel="5.0" sigma="0.0" length="4.5" maxSpeed="5.138701486697224" /><vType id="vType_car_18.030923574775294" accel="1.0" decel="5.0" sigma="0.0" length="4.5" maxSpeed="5.008589881882026" /><vType id="vType_car_22.371089322014665" accel="1.0" decel="5.0" sigma="0.0" length="4.5" maxSpeed="6.214191478337407" /><vType id="vType_car_3.6680310756980847" accel="1.0" decel="5.0" sigma="0.0" length="4.5" maxSpeed="1.0188975210272457" /><vType id="vType_car_3.1578445059990132" accel="1.0" decel="5.0" sigma="0.0" length="4.5" maxSpeed="0.8771790294441704" /><vType id="vType_car_16.514966124238864" accel="1.0" decel="5.0" sigma="0.0" length="4.5" maxSpeed="4.587490590066351" /><vType id="vType_car_31.738426333062502" accel="1.0" decel="5.0" sigma="0.0" length="4.5" maxSpeed="8.816229536961806" /><vType id="vType_car_25.354852469645508" accel="1.0" decel="5.0" sigma="0.0" length="4.5" maxSpeed="7.043014574901529" /><vType id="vType_car_30.31115754551382" accel="1.0" decel="5.0" sigma="0.0" length="4.5" maxSpeed="8.419765984864949" /><vType id="vType_car_0.15369942478311205" accel="1.0" decel="5.0" sigma="0.0" length="4.5" maxSpeed="0.04269428466197557" /><vType id="vType_car_2.387396685739962" accel="1.0" decel="5.0" sigma="0.0" length="4.5" maxSpeed="0.6631657460388783" /><vType id="vType_car_14.305436970629561" accel="1.0" decel="5.0" sigma="0.0" length="4.5" maxSpeed="3.9737324918415444" /><vType id="vType_car_36.41949203294579" accel="1.0" decel="5.0" sigma="0.0" length="4.5" maxSpeed="10.116525564707164" /><vType id="vType_car_26.311113253802166" accel="1.0" decel="5.0" sigma="0.0" length="4.5" maxSpeed="7.308642570500601" /><vType id="vType_car_2.443820854051481" accel="1.0" decel="5.0" sigma="0.0" length="4.5" maxSpeed="0.6788391261254114" /><vType id="vType_car_37.180150760928434" accel="1.0" decel="5.0" sigma="0.0" length="4.5" maxSpeed="10.327819655813453" /><vType id="vType_car_29.203937224594995" accel="1.0" decel="5.0" sigma="0.0" length="4.5" maxSpeed="8.112204784609721" /><vType id="vType_car_11.365206920108855" accel="1.0" decel="5.0" sigma="0.0" length="4.5" maxSpeed="3.15700192225246" /><vType id="vType_car_41.98230695457693" accel="1.0" decel="5.0" sigma="0.0" length="4.5" maxSpeed="11.661751931826924" /><vType id="vType_car_2.7665896460960164" accel="1.0" decel="5.0" sigma="0.0" length="4.5" maxSpeed="0.7684971239155601" /><vType id="vType_car_9.976265456571332" accel="1.0" decel="5.0" sigma="0.0" length="4.5" maxSpeed="2.771184849047592" /><vType id="vType_car_4.233795370732254" accel="1.0" decel="5.0" sigma="0.0" length="4.5" maxSpeed="1.1760542696478484" /><vType id="vType_car_47.93412267056115" accel="1.0" decel="5.0" sigma="0.0" length="4.5" maxSpeed="13.315034075155875" /><vType id="vType_car_10.133046671316896" accel="1.0" decel="5.0" sigma="0.0" length="4.5" maxSpeed="2.8147351864769155" /><vType id="vType_car_3.037528174533332" accel="1.0" decel="5.0" sigma="0.0" length="4.5" maxSpeed="0.8437578262592588" /><vType id="vType_car_2.9271371308148115" accel="1.0" decel="5.0" sigma="0.0" length="4.5" maxSpeed="0.8130936474485587" /><vType id="vType_car_6.9384261807840115" accel="1.0" decel="5.0" sigma="0.0" length="4.5" maxSpeed="1.9273406057733364" /><vType id="vType_car_38.9012177949901" accel="1.0" decel="5.0" sigma="0.0" length="4.5" maxSpeed="10.805893831941695" /><vType id="vType_truck_44.209956061815426" accel="1.0" decel="5.0" sigma="0.0" length="8" maxSpeed="12.280543350504285" /><vType id="vType_car_8.00396853695717" accel="1.0" decel="5.0" sigma="0.0" length="4.5" maxSpeed="2.223324593599214" /><vType id="vType_car_12.820582544256256" accel="1.0" decel="5.0" sigma="0.0" length="4.5" maxSpeed="3.561272928960071" /><vType id="vType_car_28.156681091948954" accel="1.0" decel="5.0" sigma="0.0" length="4.5" maxSpeed="7.821300303319154" /><vType id="vType_car_52.315202549971424" accel="1.0" decel="5.0" sigma="0.0" length="4.5" maxSpeed="14.532000708325395" /><vType id="vType_car_11.491054948806674" accel="1.0" decel="5.0" sigma="0.0" length="4.5" maxSpeed="3.191959708001854" /><vType id="vType_car_8.192354619483108" accel="1.0" decel="5.0" sigma="0.0" length="4.5" maxSpeed="2.27565406096753" /><vType id="vType_car_8.760101981678067" accel="1.0" decel="5.0" sigma="0.0" length="4.5" maxSpeed="2.433361661577241" /><vType id="vType_car_19.298666017987152" accel="1.0" decel="5.0" sigma="0.0" length="4.5" maxSpeed="5.360740560551987" /><vType id="vType_car_30.140890628768982" accel="1.0" decel="5.0" sigma="0.0" length="4.5" maxSpeed="8.372469619102494" /><vType id="vType_car_11.406941333594059" accel="1.0" decel="5.0" sigma="0.0" length="4.5" maxSpeed="3.1685948148872383" /><vType id="vType_car_24.789742216214243" accel="1.0" decel="5.0" sigma="0.0" length="4.5" maxSpeed="6.886039504503956" /><vType id="vType_car_6.451133120443277" accel="1.0" decel="5.0" sigma="0.0" length="4.5" maxSpeed="1.7919814223453547" /><vType id="vType_car_7.467503573610179" accel="1.0" decel="5.0" sigma="0.0" length="4.5" maxSpeed="2.07430654822505" /><vType id="vType_car_11.390274348094959" accel="1.0" decel="5.0" sigma="0.0" length="4.5" maxSpeed="3.163965096693044" /><vType id="vType_car_56.322708944376686" accel="1.0" decel="5.0" sigma="0.0" length="4.5" maxSpeed="15.645196928993524" /><vType id="vType_car_10.588639395341577" accel="1.0" decel="5.0" sigma="0.0" length="4.5" maxSpeed="2.941288720928216" /><vType id="vType_car_21.509709101468054" accel="1.0" decel="5.0" sigma="0.0" length="4.5" maxSpeed="5.974919194852237" /><vType id="vType_truck_9.97508082716696" accel="1.0" decel="5.0" sigma="0.0" length="8" maxSpeed="2.7708557853241556" /><vType id="vType_car_15.173122853799608" accel="1.0" decel="5.0" sigma="0.0" length="4.5" maxSpeed="4.214756348277668" /><vType id="vType_car_9.270192119163998" accel="1.0" decel="5.0" sigma="0.0" length="4.5" maxSpeed="2.5750533664344437" /><vType id="vType_car_40.097407781033255" accel="1.0" decel="5.0" sigma="0.0" length="4.5" maxSpeed="11.138168828064792" /><vType id="vType_car_18.059295303075857" accel="1.0" dec