<?xml version="1.0" encoding="utf-8"?>
<routes>
	<vType id="vType_car_17.28149838182353" accel="1.0" decel="5.0" sigma="0.0" length="4.5" maxSpeed="4.800416217173202" />
	<vType id="vType_car_28.912523490231308" accel="1.0" decel="5.0" sigma="0.0" length="4.5" maxSpeed="8.031256525064252" />
	<vType id="vType_car_18.89124152817873" accel="1.0" decel="5.0" sigma="0.0" length="4.5" maxSpeed="5.247567091160758" />
	<vType id="vType_car_4.460194299741755" accel="1.0" decel="5.0" sigma="0.0" length="4.5" maxSpeed="1.2389428610393765" />
	<vType id="vType_car_20.41298998140609" accel="1.0" decel="5.0" sigma="0.0" length="4.5" maxSpeed="5.670274994835024" />
	<vType id="vType_car_3.602174812493953" accel="1.0" decel="5.0" sigma="0.0" length="4.5" maxSpeed="1.0006041145816535" />
	<vType id="vType_car_28.104980295557247" accel="1.0" decel="5.0" sigma="0.0" length="4.5" maxSpeed="7.806938970988124" />
	<vType id="vType_car_1.867323894056272" accel="1.0" decel="5.0" sigma="0.0" length="4.5" maxSpeed="0.5187010816822978" />
	<vType id="vType_car_14.677553095294726" accel="1.0" decel="5.0" sigma="0.0" length="4.5" maxSpeed="4.077098082026313" />
	<vType id="vType_car_4.196268860670798" accel="1.0" decel="5.0" sigma="0.0" length="4.5" maxSpeed="1.1656302390752216" />
	<vType id="vType_car_30.720618290358168" accel="1.0" decel="5.0" sigma="0.0" length="4.5" maxSpeed="8.533505080655047" />
	<vType id="vType_car_11.496399062156929" accel="1.0" decel="5.0" sigma="0.0" length="4.5" maxSpeed="3.1934441839324803" />
	<vType id="vType_car_26.790051825114507" accel="1.0" decel="5.0" sigma="0.0" length="4.5" maxSpeed="7.441681062531807" />
	<vType id="vType_car_4.56189534742773" accel="1.0" decel="5.0" sigma="0.0" length="4.5" maxSpeed="1.2671931520632582" />
	<vType id="vType_car_17.243376795727805" accel="1.0" decel="5.0" sigma="0.0" length="4.5" maxSpeed="4.789826887702168" />
	<vType id="vType_car_39.16073767430462" accel="1.0" decel="5.0" sigma="0.0" length="4.5" maxSpeed="10.877982687306838" />
	<vType id="vType_car_13.903081465351915" accel="1.0" decel="5.0" sigma="0.0" length="4.5" maxSpeed="3.861967073708865" />
	<vType id="vType_car_20.66568770669587" accel="1.0" decel="5.0" sigma="0.0" length="4.5" maxSpeed="5.740468807415519" />
	<vType id="vType_car_26.318007085252322" accel="1.0" decel="5.0" sigma="0.0" length="4.5" maxSpeed="7.310557523681201" />
	<vType id="vType_car_26.416616773092937" accel="1.0" decel="5.0" sigma="0.0" length="4.5" maxSpeed="7.337949103636927" />
	<vType id="vType_car_24.439797841378773" accel="1.0" decel="5.0" sigma="0.0" length="4.5" maxSpeed="6.788832733716326" />
	<vType id="vType_car_22.686764215282043" accel="1.0" decel="5.0" sigma="0.0" length="4.5" maxSpeed="6.301878948689456" />
	<vType id="vType_car_4.844442409049991" accel="1.0" decel="5.0" sigma="0.0" length="4.5" maxSpeed="1.345678446958331" />
	<vType id="vType_car_3.8098594551415212" accel="1.0" decel="5.0" sigma="0.0" length="4.5" maxSpeed="1.058294293094867" />
	<vType id="vType_car_25.1981698880233" accel="1.0" decel="5.0" sigma="0.0" length="4.5" maxSpeed="6.999491635562028" />
	<vType id="vType_car_19.096154458635873" accel="1.0" decel="5.0" sigma="0.0" length="4.5" maxSpeed="5.304487349621076" />
	<vType id="vType_car_27.58467952186655" accel="1.0" decel="5.0" sigma="0.0" length="4.5" maxSpeed="7.662410978296264" />
	<vType id="vType_car_19.395582932644476" accel="1.0" decel="5.0" sigma="0.0" length="4.5" maxSpeed="5.387661925734577" />
	<vType id="vType_car_29.9846630204902" accel="1.0" decel="5.0" sigma="0.0" length="4.5" maxSpeed="8.329073061247277" />
	<vType id="vType_car_17.048765382160198" accel="1.0" decel="5.0" sigma="0.0" length="4.5" maxSpeed="4.735768161711166" />
	<vType id="vType_car_22.321754684570237" accel="1.0" decel="5.0" sigma="0.0" length="4.5" maxSpeed="6.200487412380621" />
	<vType id="vType_car_14.64818251728922" accel="1.0" decel="5.0" sigma="0.0" length="4.5" maxSpeed="4.068939588135894" />
	<vType id="vType_car_23.880084554325993" accel="1.0" decel="5.0" sigma="0.0" length="4.5" maxSpeed="6.633356820646109" />
	<vType id="vType_car_3.4553655169304087" accel="1.0" decel="5.0" sigma="0.0" length="4.5" maxSpeed="0.9598237547028913" />
	<vType id="vType_car_27.29196289433676" accel="1.0" decel="5.0" sigma="0.0" length="4.5" maxSpeed="7.581100803982433" />
	<vType id="vType_car_40.385066249959834" accel="1.0" decel="5.0" sigma="0.0" length="4.5" maxSpeed="11.218073958322176" />
	<vType id="vType_car_26.848095499082874" accel="1.0" decel="5.0" sigma="0.0" length="4.5" maxSpeed="7.457804305300798" />
	<vType id="vType_car_16.333033060281803" accel="1.0" decel="5.0" sigma="0.0" length="4.5" maxSpeed="4.5369536278560565" />
	<vType id="vType_car_5.204971363924822" accel="1.0" decel="5.0" sigma="0.0" length="4.5" maxSpeed="1.4458253788680062" />
	<vType id="vType_car_25.44536174452423" accel="1.0" decel="5.0" sigma="0.0" length="4.5" maxSpeed="7.068156040145619" />
	<vType id="vType_car_3.787825767867538" accel="1.0" decel="5.0" sigma="0.0" length="4.5" maxSpeed="1.0521738244076495" />
	<vType id="vType_car_18.67884499737089" accel="1.0" decel="5.0" sigma="0.0" length="4.5" maxSpeed="5.1885680548252475" />
	<vType id="vType_car_7.046549740429511" accel="1.0" decel="5.0" sigma="0.0" length="4.5" maxSpeed="1.9573749278970864" />
	<vType id="vType_car_3.7791978460625764" accel="1.0" decel="5.0" sigma="0.0" length="4.5" maxSpeed="1.0497771794618267" />
	<vType id="vType_car_32.77909211459981" accel="1.0" decel="5.0" sigma="0.0" length="4.5" maxSpeed="9.105303365166614" />
	<vType id="vType_car_14.871585393645136" accel="1.0" decel="5.0" sigma="0.0" length="4.5" maxSpeed="4.1309959426792044" />
	<vType id="vType_car_31.48740443312538" accel="1.0" decel="5.0" sigma="0.0" length="4.5" maxSpeed="8.746501231423716" />
	<vType id="vType_car_17.484923582651504" accel="1.0" decel="5.0" sigma="0.0" length="4.5" maxSpeed="4.856923217403195" />
	<vType id="vType_car_3.6926996850556315" accel="1.0" decel="5.0" sigma="0.0" length="4.5" maxSpeed="1.0257499125154532" />
	<vType id="vType_car_16.863598346921087" accel="1.0" decel="5.0" sigma="0.0" length="4.5" maxSpeed="4.684332874144746" />
	<vType id="vType_car_22.89554811393793" accel="1.0" decel="5.0" sigma="0.0" length="4.5" maxSpeed="6.35987447609387" />
	<vType id="vType_car_19.99843604948402" accel="1.0" decel="5.0" sigma="0.0" length="4.5" maxSpeed="5.555121124856672" />
	<vType id="vType_car_13.497163778802832" accel="1.0" decel="5.0" sigma="0.0" length="4.5" maxSpeed="3.7492121607785647" />
	<vType id="vType_car_28.715179667214606" accel="1.0" decel="5.0" sigma="0.0" length="4.5" maxSpeed="7.976438796448502" />
	<vType id="vType_car_26.979713627865593" accel="1.0" decel="5.0" sigma="0.0" length="4.5" maxSpeed="7.494364896629331" />
	<vType id="vType_car_1.8895989230312882" accel="1.0" decel="5.0" sigma="0.0" length="4.5" maxSpeed="0.5248885897309133" />
	<vType id="vType_car_37.1114773876276" accel="1.0" decel="5.0" sigma="0.0" length="4.5" maxSpeed="10.308743718785445" />
	<vType id="vType_car_16.667181074313167" accel="1.0" decel="5.0" sigma="0.0" length="4.5" maxSpeed="4.629772520642546" />
	<vType id="vType_car_3.4192742416756645" accel="1.0" decel="5.0" sigma="0.0" length="4.5" maxSpeed="0.9497984004654624" />
	<vType id="vType_car_28.590813028998276" accel="1.0" decel="5.0" sigma="0.0" length="4.5" maxSpeed="7.941892508055076" />
	<vType id="vType_car_29.176409760080787" accel="1.0" decel="5.0" sigma="0.0" length="4.5" maxSpeed="8.104558266689107" />
	<vType id="vType_car_28.559221462595662" accel="1.0" decel="5.0" sigma="0.0" length="4.5" maxSpeed="7.933117072943239" />
    <vType id="vType_car_17.726616445330432" accel="1.0" decel="5.0" sigma="0.0" length="4.5" maxSpeed="4.924060123702898" />
	<vType id="vType_car_28.07847520518135" accel="1.0" decel="5.0" sigma="0.0" length="4.5" maxSpeed="7.799576445883708" />
	<vType id="vType_car_9.177806426332635" accel="1.0" decel="5.0" sigma="0.0" length="4.5" maxSpeed="2.5493906739812875" />
	<vType id="vType_car_14.569744630502441" accel="1.0" decel="5.0" sigma="0.0" length="4.5" maxSpeed="4.047151286250678" />
	<vType id="vType_car_15.183163511892996" accel="1.0" decel="5.0" sigma="0.0" length="4.5" maxSpeed="4.217545419970277" />
	<vType id="vType_car_18.567142461844554" accel="1.0" decel="5.0" sigma="0.0" length="4.5" maxSpeed="5.157539572734598" />
	<vType id="vType_car_17.54564247774846" accel="1.0" decel="5.0" sigma="0.0" length="4.5" maxSpeed="4.873789577152349" />
	<vType id="vType_car_24.073869530322465" accel="1.0" decel="5.0" sigma="0.0" length="4.5" maxSpeed="6.687185980645129" />
	<vType id="vType_car_4.104616840441475" accel="1.0" decel="5.0" sigma="0.0" length="4.5" maxSpeed="1.1401713445670763" />
	<vType id="vType_car_9.959199437930014" accel="1.0" decel="5.0" sigma="0.0" length="4.5" maxSpeed="2.7664442883138927" />
	<vType id="vType_car_10.587415911377292" accel="1.0" decel="5.0" sigma="0.0" length="4.5" maxSpeed="2.94094886427147" />
	<vType id="vType_car_7.268589462485754" accel="1.0" decel="5.0" sigma="0.0" length="4.5" maxSpeed="2.019052628468265" />
	<vType id="vType_car_27.858896849477865" accel="1.0" decel="5.0" sigma="0.0" length="4.5" maxSpeed="7.738582458188295" />
	<vType id="vType_car_14.201024782375557" accel="1.0" decel="5.0" sigma="0.0" length="4.5" maxSpeed="3.944729106215432" />
	<vType id="vType_car_4.557755419088265" accel="1.0" decel="5.0" sigma="0.0" length="4.5" maxSpeed="1.2660431719689624" />
	<vType id="vType_car_9.952288931884244" accel="1.0" decel="5.0" sigma="0.0" length="4.5" maxSpeed="2.764524703301179" />
	<vType id="vType_car_36.70315990237012" accel="1.0" decel="5.0" sigma="0.0" length="4.5" maxSpeed="10.19532219510281" />
	<vType id="vType_car_3.7791978460625764" accel="1.0" decel="5.0" sigma="0.0" length="4.5" maxSpeed="1.0497771794618267" />
	<vType id="vType_car_4.300996180306012" accel="1.0" decel="5.0" sigma="0.0" length="4.5" maxSpeed="1.1947211611961146" />
	<vType id="vType_car_9.590877685280994" accel="1.0" decel="5.0" sigma="0.0" length="4.5" maxSpeed="2.6641326903558316" />
	<vType id="vType_car_35.77696656349829" accel="1.0" decel="5.0" sigma="0.0" length="4.5" maxSpeed="9.938046267638414" />
	<vType id="vType_car_5.657025299351064" accel="1.0" decel="5.0" sigma="0.0" length="4.5" maxSpeed="1.5713959164864066" />
	<vType id="vType_car_19.859352147350197" accel="1.0" decel="5.0" sigma="0.0" length="4.5" maxSpeed="5.516486707597277" />
	<vType id="vType_car_20.108914084377087" accel="1.0" decel="5.0" sigma="0.0" length="4.5" maxSpeed="5.585809467882524" />
	<vType id="vType_car_17.785445475122554" accel="1.0" decel="5.0" sigma="0.0" length="4.5" maxSpeed="4.940401520867376" />
	<vType id="vType_car_23.791609138780835" accel="1.0" decel="5.0" sigma="0.0" length="4.5" maxSpeed="6.608780316328009" />
	<vType id="vType_car_19.930245971040186" accel="1.0" decel="5.0" sigma="0.0" length="4.5" maxSpeed="5.536179436400052" />
	<vType id="vType_car_24.63381403051759" accel="1.0" decel="5.0" sigma="0.0" length="4.5" maxSpeed="6.842726119588219" />
	<vType id="vType_car_24.837417599566322" accel="1.0" decel="5.0" sigma="0.0" length="4.5" maxSpeed="6.899282666546201" />
	<vType id="vType_car_3.520886936266088" accel="1.0" decel="5.0" sigma="0.0" length="4.5" maxSpeed="0.9780241489628022" />
	<vType id="vType_car_18.435853230128522" accel="1.0" decel="5.0" sigma="0.0" length="4.5" maxSpeed="5.121070341702367" />
	<vType id="vType_car_24.88187826607055" accel="1.0" decel="5.0" sigma="0.0" length="4.5" maxSpeed="6.911632851686264" />
	<vType id="vType_car_19.50448528948374" accel="1.0" decel="5.0" sigma="0.0" length="4.5" maxSpeed="5.41791258041215" />
	<vType id="vType_car_16.085605824615126" accel="1.0" decel="5.0" sigma="0.0" length="4.5" maxSpeed="4.468223840170868" />
	<vType id="vType_car_22.572904134258366" accel="1.0" decel="5.0" sigma="0.0" length="4.5" maxSpeed="6.270251148405102" />
	<vType id="vType_car_18.49718460721826" accel="1.0" decel="5.0" sigma="0.0" length="4.5" maxSpeed="5.138106835338405" />
	<vType id="vType_car_31.379307133152132" accel="1.0" decel="5.0" sigma="0.0" length="4.5" maxSpeed="8.71647420365337" />
	<vType id="vType_car_29.548203718255706" accel="1.0" decel="5.0" sigma="0.0" length="4.5" maxSpeed="8.20783436618214" />
	<vType id="vType_car_31.070325692282527" accel="1.0" decel="5.0" sigma="0.0" length="4.5" maxSpeed="8.630646025634036" />
	<vType id="vType_car_22.95614840177921" accel="1.0" decel="5.0" sigma="0.0" length="4.5" maxSpeed="6.3767078893831135" />
	<vType id="vType_car_22.10439332405689" accel="1.0" decel="5.0" sigma="0.0" length="4.5" maxSpeed="6.140109256682469" />
	<vType id="vType_car_20.98966536579568" accel="1.0" decel="5.0" sigma="0.0" length="4.5" maxSpeed="5.830462601609911" />
	<vType id="vType_car_32.53851296968719" accel="1.0" decel="5.0" sigma="0.0" length="4.5" maxSpeed="9.038475824913109" />
	<vType id="vType_car_33.86726734915779" accel="1.0" decel="5.0" sigma="0.0" length="4.5" maxSpeed="9.407574263654942" />
	<vType id="vType_car_18.124529204612735" accel="1.0" decel="5.0" sigma="0.0" length="4.5" maxSpeed="5.034591445725759" />
	<vType id="vType_car_28.86210429959319" accel="1.0" decel="5.0" sigma="0.0" length="4.5" maxSpeed="8.017251194331442" />
	<vType id="vType_car_9.839977457645984" accel="1.0" decel="5.0" sigma="0.0" length="4.5" maxSpeed="2.733327071568329" />
	<route id="route_north_to_east" edges="north_to_center center_to_east" />
	<route id="route_north_to_south" edges="north_to_center center_to_south" />
	<route id="route_north_to_west" edges="north_to_center center_to_west" />
	<route id="route_east_to_west" edges="east_to_center center_to_west" />
	<route id="route_east_to_south" edges="east_to_center center_to_south" />
	<route id="route_east_to_north" edges="east_to_center center_to_north" />
	<route id="route_south_to_west" edges="south_to_center center_to_west" />
	<route id="route_south_to_north" edges="south_to_center center_to_north" />
	<route id="route_south_to_east" edges="south_to_center center_to_east" />
	<route id="route_west_to_south" edges="west_to_center center_to_south" />
	<route id="route_west_to_north" edges="west_to_center center_to_north" />
	<route id="route_west_to_east" edges="west_to_center center_to_east" />
	<vehicle id="veh361" type="vType_car_17.28149838182353" route="route_west_to_north" depart="0.03" />
	<vehicle id="veh376" type="vType_car_28.912523490231308" route="route_east_to_west" depart="0.03" />
	<vehicle id="veh383" type="vType_car_18.89124152817873" route="route_west_to_north" depart="0.03" />
	<vehicle id="veh386" type="vType_car_20.41298998140609" route="route_west_to_south" depart="0.03" />
	<vehicle id="veh390" type="vType_car_28.104980295557247" route="route_south_to_north" depart="3.70" />
	<vehicle id="veh392" type="vType_car_14.677553095294726" route="route_north_to_south" depart="9.50" />
	<vehicle id="veh395" type="vType_car_30.720618290358168" route="route_east_to_west" depart="23.67" />
	<vehicle id="veh396" type="vType_car_11.496399062156929" route="route_north_to_east" depart="23.97" />
	<vehicle id="veh397" type="vType_car_26.790051825114507" route="route_east_to_south" depart="26.01" />
	<vehicle id="veh400" type="vType_car_17.243376795727805" route="route_west_to_north" depart="27.27" />
	<vehicle id="veh402" type="vType_car_39.16073767430462" route="route_east_to_west" depart="33.74" />
	<vehicle id="veh403" type="vType_car_13.903081465351915" route="route_south_to_north" depart="42.58" />
	<vehicle id="veh404" type="vType_car_20.66568770669587" route="route_north_to_east" depart="44.01" />
	<vehicle id="veh405" type="vType_car_26.318007085252322" route="route_north_to_south" depart="45.54" />
	<vehicle id="veh411" type="vType_car_26.416616773092937" route="route_north_to_south" depart="48.01" />
	<vehicle id="veh413" type="vType_car_24.439797841378773" route="route_north_to_south" depart="48.14" />
	<vehicle id="veh416" type="vType_car_22.686764215282043" route="route_north_to_south" depart="50.64" />
	<vehicle id="veh423" type="vType_car_25.1981698880233" route="route_north_to_south" depart="54.38" />
	<vehicle id="veh424" type="vType_car_19.096154458635873" route="route_north_to_west" depart="57.21" />
	<vehicle id="veh426" type="vType_car_27.58467952186655" route="route_north_to_south" depart="58.21" />
	<vehicle id="veh427" type="vType_car_19.395582932644476" route="route_north_to_west" depart="59.65" />
	<vehicle id="veh428" type="vType_car_29.9846630204902" route="route_south_to_north" depart="60.98" />
	<vehicle id="veh431" type="vType_car_17.048765382160198" route="route_west_to_east" depart="61.98" />
	<vehicle id="veh433" type="vType_car_22.321754684570237" route="route_north_to_south" depart="63.08" />
	<vehicle id="veh434" type="vType_car_14.64818251728922" route="route_north_to_east" depart="65.38" />
	<vehicle id="veh435" type="vType_car_23.880084554325993" route="route_north_to_west" depart="66.08" />
	<vehicle id="veh438" type="vType_car_27.29196289433676" route="route_north_to_south" depart="68.35" />
	<vehicle id="veh440" type="vType_car_26.848095499082874" route="route_north_to_south" depart="70.41" />
	<vehicle id="veh442" type="vType_car_16.333033060281803" route="route_north_to_east" depart="70.85" />
	<vehicle id="veh445" type="vType_car_25.44536174452423" route="route_north_to_south" depart="71.62" />
	<vehicle id="veh449" type="vType_car_18.67884499737089" route="route_north_to_east" depart="74.82" />
	<vehicle id="veh450" type="vType_car_7.046549740429511" route="route_east_to_north" depart="74.85" />
	<vehicle id="veh453" type="vType_car_32.77909211459981" route="route_north_to_south" depart="75.65" />
	<vehicle id="veh455" type="vType_car_14.871585393645136" route="route_west_to_north" depart="76.05" />
	<vehicle id="veh456" type="vType_car_31.48740443312538" route="route_north_to_south" depart="77.18" />
	<vehicle id="veh457" type="vType_car_17.484923582651504" route="route_north_to_east" depart="77.18" />
	<vehicle id="veh460" type="vType_car_16.863598346921087" route="route_north_to_east" depart="78.65" />
	<vehicle id="veh461" type="vType_car_22.89554811393793" route="route_north_to_south" depart="78.82" />
	<vehicle id="veh465" type="vType_car_19.99843604948402" route="route_north_to_east" depart="82.22" />
	<vehicle id="veh466" type="vType_car_13.497163778802832" route="route_north_to_east" depart="82.68" />
	<vehicle id="veh471" type="vType_car_26.979713627865593" route="route_south_to_north" depart="88.15" />
	<vehicle id="veh475" type="vType_car_37.1114773876276" route="route_north_to_south" depart="92.42" />
	<vehicle id="veh476" type="vType_car_16.667181074313167" route="route_north_to_west" depart="95.22" />
	<vehicle id="veh479" type="vType_car_28.590813028998276" route="route_west_to_east" depart="102.66" />
	<vehicle id="veh482" type="vType_car_29.176409760080787" route="route_east_to_west" depart="107.82" />
	<vehicle id="veh483" type="vType_car_28.559221462595662" route="route_east_to_west" depart="109.09" />
    <vehicle id="veh486" type="vType_car_17.726616445330432" route="route_north_to_west" depart="121.10" />
	<vehicle id="veh488" type="vType_car_28.07847520518135" route="route_west_to_north" depart="121.73" />
	<vehicle id="veh489" type="vType_car_9.177806426332635" route="route_east_to_north" depart="131.97" />
	<vehicle id="veh491" type="vType_car_14.569744630502441" route="route_west_to_north" depart="132.44" />
	<vehicle id="veh493" type="vType_car_15.183163511892996" route="route_west_to_north" depart="134.30" />
	<vehicle id="veh494" type="vType_car_18.567142461844554" route="route_north_to_west" depart="135.30" />
	<vehicle id="veh496" type="vType_car_17.54564247774846" route="route_north_to_east" depart="136.74" />
	<vehicle id="veh500" type="vType_car_24.073869530322465" route="route_east_to_west" depart="152.31" />
	<vehicle id="veh503" type="vType_car_9.959199437930014" route="route_north_to_east" depart="155.27" />
	<vehicle id="veh504" type="vType_car_10.587415911377292" route="route_north_to_south" depart="155.77" />
	<vehicle id="veh506" type="vType_car_7.268589462485754" route="route_east_to_north" depart="155.94" />
	<vehicle id="veh507" type="vType_car_27.858896849477865" route="route_west_to_north" depart="156.44" />
	<vehicle id="veh509" type="vType_car_14.201024782375557" route="route_north_to_south" depart="159.91" />
	<vehicle id="veh512" type="vType_car_9.952288931884244" route="route_east_to_north" depart="165.24" />
	<vehicle id="veh515" type="vType_car_36.70315990237012" route="route_west_to_south" depart="165.44" />
	<vehicle id="veh518" type="vType_car_9.590877685280994" route="route_east_to_north" depart="168.51" />
	<vehicle id="veh519" type="vType_car_35.77696656349829" route="route_east_to_west" depart="169.14" />
	<vehicle id="veh523" type="vType_car_19.859352147350197" route="route_north_to_west" depart="188.85" />
	<vehicle id="veh525" type="vType_car_20.108914084377087" route="route_north_to_west" depart="190.11" />
	<vehicle id="veh526" type="vType_car_17.785445475122554" route="route_north_to_east" depart="191.95" />
	<vehicle id="veh529" type="vType_car_23.791609138780835" route="route_north_to_south" depart="192.85" />
	<vehicle id="veh531" type="vType_car_19.930245971040186" route="route_north_to_west" depart="194.52" />
	<vehicle id="veh532" type="vType_car_24.63381403051759" route="route_south_to_north" depart="195.32" />
	<vehicle id="veh533" type="vType_car_24.837417599566322" route="route_north_to_south" depart="196.28" />
	<vehicle id="veh536" type="vType_car_18.435853230128522" route="route_south_to_north" depart="200.38" />
	<vehicle id="veh538" type="vType_car_24.88187826607055" route="route_north_to_south" depart="200.95" />
	<vehicle id="veh539" type="vType_car_19.50448528948374" route="route_north_to_west" depart="203.65" />
	<vehicle id="veh542" type="vType_car_22.572904134258366" route="route_north_to_south" depart="204.68" />
	<vehicle id="veh543" type="vType_car_18.49718460721826" route="route_south_to_north" depart="205.82" />
	<vehicle id="veh544" type="vType_car_31.379307133152132" route="route_north_to_south" depart="209.19" />
	<vehicle id="veh546" type="vType_car_29.548203718255706" route="route_north_to_south" depart="212.65" />
	<vehicle id="veh547" type="vType_car_31.070325692282527" route="route_north_to_south" depart="215.22" />
	<vehicle id="veh550" type="vType_car_22.95614840177921" route="route_south_to_north" depart="218.02" />
	<vehicle id="veh551" type="vType_car_22.10439332405689" route="route_north_to_west" depart="218.15" />
	<vehicle id="veh552" type="vType_car_20.98966536579568" route="route_north_to_west" depart="219.85" />
	<vehicle id="veh553" type="vType_car_32.53851296968719" route="route_north_to_south" depart="223.72" />
	<vehicle id="veh555" type="vType_car_33.86726734915779" route="route_north_to_south" depart="226.86" />
	<vehicle id="veh556" type="vType_car_18.124529204612735" route="route_south_to_west" depart="229.22" />
	<vehicle id="veh557" type="vType_car_28.86210429959319" route="route_north_to_south" depart="229.52" />
</routes>
