<?xml version='1.0' encoding='utf-8'?>
<routes><vType id="vType_car_34.33388958633687" accel="1.0" decel="5.0" sigma="0.0" length="4.5" maxSpeed="9.537191551760243" /><vType id="vType_car_28.307506186037713" accel="1.0" decel="5.0" sigma="0.0" length="4.5" maxSpeed="7.863196162788253" /><vType id="vType_car_11.339185389848542" accel="1.0" decel="5.0" sigma="0.0" length="4.5" maxSpeed="3.1497737194023725" /><vType id="vType_car_46.858016449470554" accel="1.0" decel="5.0" sigma="0.0" length="4.5" maxSpeed="13.016115680408486" /><vType id="vType_car_36.15616251087171" accel="1.0" decel="5.0" sigma="0.0" length="4.5" maxSpeed="10.043378475242141" /><vType id="vType_car_11.97769061222369" accel="1.0" decel="5.0" sigma="0.0" length="4.5" maxSpeed="3.327136281173247" /><vType id="vType_car_42.3536979438956" accel="1.0" decel="5.0" sigma="0.0" length="4.5" maxSpeed="11.764916095526555" /><vType id="vType_car_48.4092200084411" accel="1.0" decel="5.0" sigma="0.0" length="4.5" maxSpeed="13.447005557900306" /><vType id="vType_car_35.82619325046169" accel="1.0" decel="5.0" sigma="0.0" length="4.5" maxSpeed="9.95172034735047" /><vType id="vType_car_3.464264692224028" accel="1.0" decel="5.0" sigma="0.0" length="4.5" maxSpeed="0.9622957478400077" /><vType id="vType_car_46.05434681818023" accel="1.0" decel="5.0" sigma="0.0" length="4.5" maxSpeed="12.792874116161174" /><vType id="vType_car_11.635271489586048" accel="1.0" decel="5.0" sigma="0.0" length="4.5" maxSpeed="3.2320198582183464" /><vType id="vType_car_29.264473762053434" accel="1.0" decel="5.0" sigma="0.0" length="4.5" maxSpeed="8.129020489459288" /><vType id="vType_car_17.482207780383714" accel="1.0" decel="5.0" sigma="0.0" length="4.5" maxSpeed="4.856168827884365" /><vType id="vType_car_19.05593994150878" accel="1.0" decel="5.0" sigma="0.0" length="4.5" maxSpeed="5.293316650419105" /><vType id="vType_car_12.53429705057754" accel="1.0" decel="5.0" sigma="0.0" length="4.5" maxSpeed="3.4817491807159833" /><vType id="vType_car_15.734991972029167" accel="1.0" decel="5.0" sigma="0.0" length="4.5" maxSpeed="4.370831103341435" /><vType id="vType_car_21.14660076168203" accel="1.0" decel="5.0" sigma="0.0" length="4.5" maxSpeed="5.874055767133897" /><vType id="vType_car_4.72399730757822" accel="1.0" decel="5.0" sigma="0.0" length="4.5" maxSpeed="1.312221474327283" /><vType id="vType_car_16.012558978144547" accel="1.0" decel="5.0" sigma="0.0" length="4.5" maxSpeed="4.447933049484596" /><vType id="vType_car_14.410640678889095" accel="1.0" decel="5.0" sigma="0.0" length="4.5" maxSpeed="4.00295574413586" /><vType id="vType_car_15.566314973251867" accel="1.0" decel="5.0" sigma="0.0" length="4.5" maxSpeed="4.323976381458852" /><vType id="vType_car_7.741826257514426" accel="1.0" decel="5.0" sigma="0.0" length="4.5" maxSpeed="2.150507293754007" /><vType id="vType_car_21.061194753296693" accel="1.0" decel="5.0" sigma="0.0" length="4.5" maxSpeed="5.850331875915748" /><vType id="vType_car_17.207276269682737" accel="1.0" decel="5.0" sigma="0.0" length="4.5" maxSpeed="4.7797989638007605" /><vType id="vType_car_20.481317098105194" accel="1.0" decel="5.0" sigma="0.0" length="4.5" maxSpeed="5.6892547494736645" /><vType id="vType_car_22.491165945209584" accel="1.0" decel="5.0" sigma="0.0" length="4.5" maxSpeed="6.2475460958915505" /><vType id="vType_truck_5.785211548801024" accel="1.0" decel="5.0" sigma="0.0" length="8" maxSpeed="1.6070032080002843" /><vType id="vType_truck_3.7791978460625764" accel="1.0" decel="5.0" sigma="0.0" length="8" maxSpeed="1.0497771794618267" /><vType id="vType_bus_11.164041621925353" accel="1.0" decel="5.0" sigma="0.0" length="13" maxSpeed="3.1011226727570422" /><vType id="vType_car_32.11203518769247" accel="1.0" decel="5.0" sigma="0.0" length="4.5" maxSpeed="8.92000977435902" /><vType id="vType_car_4.489691576733373" accel="1.0" decel="5.0" sigma="0.0" length="4.5" maxSpeed="1.2471365490926034" /><vType id="vType_bus_10.92247066658118" accel="1.0" decel="5.0" sigma="0.0" length="13" maxSpeed="3.0340196296058832" /><vType id="vType_car_33.401526352546206" accel="1.0" decel="5.0" sigma="0.0" length="4.5" maxSpeed="9.278201764596169" /><vType id="vType_car_5.0041166265763275" accel="1.0" decel="5.0" sigma="0.0" length="4.5" maxSpeed="1.390032396271202" /><vType id="vType_car_36.37074134831847" accel="1.0" decel="5.0" sigma="0.0" length="4.5" maxSpeed="10.10298370786624" /><vType id="vType_car_19.352491593606818" accel="1.0" decel="5.0" sigma="0.0" length="4.5" maxSpeed="5.375692109335227" /><vType id="vType_car_18.75683226382127" accel="1.0" decel="5.0" sigma="0.0" length="4.5" maxSpeed="5.2102311843947975" /><vType id="vType_car_6.5514388756494615" accel="1.0" decel="5.0" sigma="0.0" length="4.5" maxSpeed="1.8198441321248504" /><vType id="vType_car_24.52753838623693" accel="1.0" decel="5.0" sigma="0.0" length="4.5" maxSpeed="6.813205107288036" /><vType id="vType_car_26.95347270635941" accel="1.0" decel="5.0" sigma="0.0" length="4.5" maxSpeed="7.487075751766502" /><vType id="vType_car_4.424231599623694" accel="1.0" decel="5.0" sigma="0.0" length="4.5" maxSpeed="1.2289532221176926" /><vType id="vType_car_4.557755419088265" accel="1.0" decel="5.0" sigma="0.0" length="4.5" maxSpeed="1.2660431719689624" /><vType id="vType_car_7.503297523330393" accel="1.0" decel="5.0" sigma="0.0" length="4.5" maxSpeed="2.08424931203622" /><vType id="vType_car_6.687893995065793" accel="1.0" decel="5.0" sigma="0.0" length="4.5" maxSpeed="1.8577483319627204" /><vType id="vType_car_5.1162061644538674" accel="1.0" decel="5.0" sigma="0.0" length="4.5" maxSpeed="1.4211683790149632" /><vType id="vType_car_27.454993329438082" accel="1.0" decel="5.0" sigma="0.0" length="4.5" maxSpeed="7.626387035955022" /><vType id="vType_car_3.7092127007651188" accel="1.0" decel="5.0" sigma="0.0" length="4.5" maxSpeed="1.030336861323644" /><vType id="vType_car_10.285079681248106" accel="1.0" decel="5.0" sigma="0.0" length="4.5" maxSpeed="2.856966578124474" /><vType id="vType_car_10.713396275918004" accel="1.0" decel="5.0" sigma="0.0" length="4.5" maxSpeed="2.9759434099772233" /><vType id="vType_car_9.001836387647632" accel="1.0" decel="5.0" sigma="0.0" length="4.5" maxSpeed="2.5005101076798977" /><vType id="vType_car_3.7791978460625764" accel="1.0" decel="5.0" sigma="0.0" length="4.5" maxSpeed="1.0497771794618267" /><route id="route_north_to_east" edges="north_to_center center_to_east" /><route id="route_north_to_south" edges="north_to_center center_to_south" /><route id="route_north_to_west" edges="north_to_center center_to_west" /><route id="route_east_to_west" edges="east_to_center center_to_west" /><route id="route_east_to_south" edges="east_to_center center_to_south" /><route id="route_east_to_north" edges="east_to_center center_to_north" /><route id="route_south_to_west" edges="south_to_center center_to_west" /><route id="route_south_to_north" edges="south_to_center center_to_north" /><route id="route_south_to_east" edges="south_to_center center_to_east" /><route id="route_west_to_south" edges="west_to_center center_to_south" /><route id="route_west_to_north" edges="west_to_center center_to_north" /><route id="route_west_to_east" edges="west_to_center center_to_east" /><vehicle id="veh521" type="vType_car_34.33388958633687" route="route_west_to_east" depart="0.03" /><vehicle id="veh558" type="vType_car_11.339185389848542" route="route_east_to_north" depart="0.03" /><vehicle id="veh559" type="vType_car_46.858016449470554" route="route_east_to_west" depart="2.43" /><vehicle id="veh560" type="vType_car_36.15616251087171" route="route_west_to_east" depart="3.93" /><vehicle id="veh561" type="vType_car_11.97769061222369" route="route_south_to_north" depart="4.57" /><vehicle id="veh562" type="vType_car_42.3536979438956" route="route_west_to_east" depart="7.10" /><vehicle id="veh563" type="vType_car_48.4092200084411" route="route_east_to_west" depart="8.90" /><vehicle id="veh565" type="vType_car_35.82619325046169" route="route_west_to_east" depart="9.47" /><vehicle id="veh567" type="vType_car_46.05434681818023" route="route_west_to_east" depart="11.90" /><vehicle id="veh568" type="vType_car_11.635271489586048" route="route_north_to_east" depart="13.44" /><vehicle id="veh569" type="vType_car_29.264473762053434" route="route_west_to_south" depart="14.94" /><vehicle id="veh570" type="vType_car_17.482207780383714" route="route_north_to_west" depart="16.57" /><vehicle id="veh571" type="vType_car_19.05593994150878" route="route_north_to_south" depart="22.40" /><vehicle id="veh573" type="vType_car_15.734991972029167" route="route_south_to_north" depart="30.21" /><vehicle id="veh576" type="vType_car_21.14660076168203" route="route_north_to_west" depart="31.37" /><vehicle id="veh579" type="vType_car_16.012558978144547" route="route_north_to_east" depart="34.01" /><vehicle id="veh580" type="vType_car_14.410640678889095" route="route_north_to_east" depart="34.74" /><vehicle id="veh582" type="vType_car_15.566314973251867" route="route_south_to_north" depart="46.24" /><vehicle id="veh583" type="vType_car_7.741826257514426" route="route_east_to_north" depart="48.31" /><vehicle id="veh586" type="vType_car_17.207276269682737" route="route_north_to_east" depart="65.41" /><vehicle id="veh587" type="vType_car_20.481317098105194" route="route_south_to_north" depart="77.48" /><vehicle id="veh588" type="vType_car_22.491165945209584" route="route_north_to_west" depart="78.52" /><vehicle id="veh597" type="vType_bus_11.164041621925353" route="route_east_to_north" depart="86.65" /><vehicle id="veh598" type="vType_car_32.11203518769247" route="route_north_to_south" depart="88.02" /><vehicle id="veh602" type="vType_car_33.401526352546206" route="route_north_to_south" depart="92.42" /><vehicle id="veh604" type="vType_car_36.37074134831847" route="route_north_to_south" depart="95.45" /><vehicle id="veh605" type="vType_car_19.352491593606818" route="route_north_to_west" depart="97.49" /><vehicle id="veh606" type="vType_car_18.75683226382127" route="route_north_to_east" depart="97.72" /><vehicle id="veh607" type="vType_car_6.5514388756494615" route="route_east_to_north" depart="99.65" /><vehicle id="veh610" type="vType_car_24.52753838623693" route="route_east_to_west" depart="100.85" /><vehicle id="veh611" type="vType_car_26.95347270635941" route="route_north_to_south" depart="100.89" /><vehicle id="veh614" type="vType_car_7.503297523330393" route="route_east_to_north" depart="104.72" /><vehicle id="veh619" type="vType_car_27.454993329438082" route="route_east_to_west" depart="107.82" /><vehicle id="veh621" type="vType_car_10.285079681248106" route="route_east_to_north" depart="109.59" /><vehicle id="veh622" type="vType_car_10.713396275918004" route="route_east_to_north" depart="111.79" /></routes>