<?xml version='1.0' encoding='utf-8'?>
<routes><vType id="vType_car_11.46850061514061" accel="1.0" decel="5.0" sigma="0.0" length="4.5" maxSpeed="3.185694615316836" /><vType id="vType_car_20.341087936853512" accel="1.0" decel="5.0" sigma="0.0" length="4.5" maxSpeed="5.650302204681531" /><vType id="vType_car_14.355336162146456" accel="1.0" decel="5.0" sigma="0.0" length="4.5" maxSpeed="3.987593378374015" /><vType id="vType_car_103.58112364754396" accel="1.0" decel="5.0" sigma="0.0" length="4.5" maxSpeed="28.772534346539988" /><vType id="vType_car_8.419109612907384" accel="1.0" decel="5.0" sigma="0.0" length="4.5" maxSpeed="2.33864155914094" /><vType id="vType_car_20.128056772848616" accel="1.0" decel="5.0" sigma="0.0" length="4.5" maxSpeed="5.591126881346837" /><vType id="vType_car_34.008452116893025" accel="1.0" decel="5.0" sigma="0.0" length="4.5" maxSpeed="9.446792254692507" /><vType id="vType_car_4.036479859190267" accel="1.0" decel="5.0" sigma="0.0" length="4.5" maxSpeed="1.1212444053306299" /><vType id="vType_car_30.516996706124367" accel="1.0" decel="5.0" sigma="0.0" length="4.5" maxSpeed="8.47694352947899" /><vType id="vType_car_13.826363930122962" accel="1.0" decel="5.0" sigma="0.0" length="4.5" maxSpeed="3.8406566472563783" /><vType id="vType_car_21.14261769614243" accel="1.0" decel="5.0" sigma="0.0" length="4.5" maxSpeed="5.872949360039564" /><vType id="vType_car_24.925052447580484" accel="1.0" decel="5.0" sigma="0.0" length="4.5" maxSpeed="6.923625679883467" /><vType id="vType_car_3.1917543174472742" accel="1.0" decel="5.0" sigma="0.0" length="4.5" maxSpeed="0.8865984215131317" /><vType id="vType_car_29.549392833855045" accel="1.0" decel="5.0" sigma="0.0" length="4.5" maxSpeed="8.208164676070846" /><vType id="vType_car_16.469197271149795" accel="1.0" decel="5.0" sigma="0.0" length="4.5" maxSpeed="4.5747770197638316" /><vType id="vType_car_5.342511793199336" accel="1.0" decel="5.0" sigma="0.0" length="4.5" maxSpeed="1.484031053666482" /><vType id="vType_car_30.658470413198664" accel="1.0" decel="5.0" sigma="0.0" length="4.5" maxSpeed="8.516241781444073" /><vType id="vType_car_16.523620089026124" accel="1.0" decel="5.0" sigma="0.0" length="4.5" maxSpeed="4.589894469173923" /><vType id="vType_car_34.579685648400655" accel="1.0" decel="5.0" sigma="0.0" length="4.5" maxSpeed="9.605468235666848" /><vType id="vType_car_31.599943676100477" accel="1.0" decel="5.0" sigma="0.0" length="4.5" maxSpeed="8.777762132250132" /><vType id="vType_car_18.60157503280104" accel="1.0" decel="5.0" sigma="0.0" length="4.5" maxSpeed="5.167104175778067" /><vType id="vType_car_22.51157748523268" accel="1.0" decel="5.0" sigma="0.0" length="4.5" maxSpeed="6.253215968120189" /><vType id="vType_car_3.777726317540352" accel="1.0" decel="5.0" sigma="0.0" length="4.5" maxSpeed="1.0493684215389867" /><vType id="vType_car_14.573480760301656" accel="1.0" decel="5.0" sigma="0.0" length="4.5" maxSpeed="4.0481891000837935" /><vType id="vType_car_21.039944255454433" accel="1.0" decel="5.0" sigma="0.0" length="4.5" maxSpeed="5.844428959848454" /><vType id="vType_car_6.7353926790521745" accel="1.0" decel="5.0" sigma="0.0" length="4.5" maxSpeed="1.8709424108478263" /><vType id="vType_car_2.313394011660991" accel="1.0" decel="5.0" sigma="0.0" length="4.5" maxSpeed="0.6426094476836086" /><vType id="vType_car_22.149581561629283" accel="1.0" decel="5.0" sigma="0.0" length="4.5" maxSpeed="6.152661544897023" /><vType id="vType_car_14.845461748809454" accel="1.0" decel="5.0" sigma="0.0" length="4.5" maxSpeed="4.1237393746692925" /><vType id="vType_car_27.469763669629945" accel="1.0" decel="5.0" sigma="0.0" length="4.5" maxSpeed="7.63048990823054" /><vType id="vType_car_6.421136646081007" accel="1.0" decel="5.0" sigma="0.0" length="4.5" maxSpeed="1.7836490683558353" /><vType id="vType_car_28.4473818018703" accel="1.0" decel="5.0" sigma="0.0" length="4.5" maxSpeed="7.902050500519527" /><vType id="vType_car_32.4423674617998" accel="1.0" decel="5.0" sigma="0.0" length="4.5" maxSpeed="9.011768739388833" /><vType id="vType_car_8.35851105938473" accel="1.0" decel="5.0" sigma="0.0" length="4.5" maxSpeed="2.3218086276068695" /><vType id="vType_car_4.876188308359712" accel="1.0" decel="5.0" sigma="0.0" length="4.5" maxSpeed="1.3544967523221423" /><vType id="vType_car_5.215842903502496" accel="1.0" decel="5.0" sigma="0.0" length="4.5" maxSpeed="1.4488452509729155" /><vType id="vType_car_27.223812826239243" accel="1.0" decel="5.0" sigma="0.0" length="4.5" maxSpeed="7.562170229510901" /><vType id="vType_car_5.662171216654704" accel="1.0" decel="5.0" sigma="0.0" length="4.5" maxSpeed="1.57282533795964" /><vType id="vType_car_7.263273779206605" accel="1.0" decel="5.0" sigma="0.0" length="4.5" maxSpeed="2.0175760497796125" /><vType id="vType_car_32.240265666011446" accel="1.0" decel="5.0" sigma="0.0" length="4.5" maxSpeed="8.955629351669845" /><vType id="vType_car_4.159474290708609" accel="1.0" decel="5.0" sigma="0.0" length="4.5" maxSpeed="1.1554095251968357" /><vType id="vType_car_6.499955913138054" accel="1.0" decel="5.0" sigma="0.0" length="4.5" maxSpeed="1.805543309205015" /><vType id="vType_car_14.626168271142562" accel="1.0" decel="5.0" sigma="0.0" length="4.5" maxSpeed="4.062824519761823" /><vType id="vType_car_32.33226342352418" accel="1.0" decel="5.0" sigma="0.0" length="4.5" maxSpeed="8.981184284312272" /><vType id="vType_car_3.305510527847808" accel="1.0" decel="5.0" sigma="0.0" length="4.5" maxSpeed="0.9181973688466133" /><vType id="vType_car_20.935059542147663" accel="1.0" decel="5.0" sigma="0.0" length="4.5" maxSpeed="5.815294317263239" /><vType id="vType_car_2.046268422001024" accel="1.0" decel="5.0" sigma="0.0" length="4.5" maxSpeed="0.5684078950002844" /><vType id="vType_car_4.533271581048423" accel="1.0" decel="5.0" sigma="0.0" length="4.5" maxSpeed="1.259242105846784" /><vType id="vType_car_41.5084775779384" accel="1.0" decel="5.0" sigma="0.0" length="4.5" maxSpeed="11.530132660538444" /><vType id="vType_car_3.5393765283850818" accel="1.0" decel="5.0" sigma="0.0" length="4.5" maxSpeed="0.9831601467736338" /><vType id="vType_car_50.77476711803423" accel="1.0" decel="5.0" sigma="0.0" length="4.5" maxSpeed="14.104101977231728" /><vType id="vType_car_25.690643680991705" accel="1.0" decel="5.0" sigma="0.0" length="4.5" maxSpeed="7.1362899113865845" /><vType id="vType_car_10.501448110550113" accel="1.0" decel="5.0" sigma="0.0" length="4.5" maxSpeed="2.9170689195972535" /><vType id="vType_car_50.113421132606646" accel="1.0" decel="5.0" sigma="0.0" length="4.5" maxSpeed="13.920394759057402" /><vType id="vType_car_49.4821065642381" accel="1.0" decel="5.0" sigma="0.0" length="4.5" maxSpeed="13.74502960117725" /><vType id="vType_car_33.18936782449593" accel="1.0" decel="5.0" sigma="0.0" length="4.5" maxSpeed="9.219268840137758" /><vType id="vType_car_4.847923467725434" accel="1.0" decel="5.0" sigma="0.0" length="4.5" maxSpeed="1.3466454077015095" /><vType id="vType_car_33.526953055301206" accel="1.0" decel="5.0" sigma="0.0" length="4.5" maxSpeed="9.313042515361445" /><vType id="vType_car_3.9199795426002595" accel="1.0" decel="5.0" sigma="0.0" length="4.5" maxSpeed="1.0888832062778497" /><vType id="vType_car_57.157345803719785" accel="1.0" decel="5.0" sigma="0.0" length="4.5" maxSpeed="15.877040501033273" /><vType id="vType_car_37.310029896564394" accel="1.0" decel="5.0" sigma="0.0" length="4.5" maxSpeed="10.363897193490109" /><vType id="vType_car_12.888087780161472" accel="1.0" decel="5.0" sigma="0.0" length="4.5" maxSpeed="3.5800243833781864" /><vType id="vType_car_29.256303921945175" accel="1.0" decel="5.0" sigma="0.0" length="4.5" maxSpeed="8.126751089429215" /><vType id="vType_car_2.36107894846272" accel="1.0" decel="5.0" sigma="0.0" length="4.5" maxSpeed="0.6558552634618666" /><vType id="vType_car_35.773855904187535" accel="1.0" decel="5.0" sigma="0.0" length="4.5" maxSpeed="9.93718219560765" /><vType id="vType_car_32.85754153367474" accel="1.0" decel="5.0" sigma="0.0" length="4.5" maxSpeed="9.127094870465205" /><vType id="vType_car_55.683700946664075" accel="1.0" decel="5.0" sigma="0.0" length="4.5" maxSpeed="15.467694707406688" /><vType id="vType_car_2.8037095140952855" accel="1.0" decel="5.0" sigma="0.0" length="4.5" maxSpeed="0.7788081983598015" /><vType id="vType_car_34.017292259898525" accel="1.0" decel="5.0" sigma="0.0" length="4.5" maxSpeed="9.449247849971812" /><vType id="vType_car_12.900532831903579" accel="1.0" decel="5.0" sigma="0.0" length="4.5" maxSpeed="3.5834813421954386" /><vType id="vType_car_59.91687223995682" accel="1.0" decel="5.0" sigma="0.0" length="4.5" maxSpeed="16.643575622210225" /><vType id="vType_car_65.40208747462881" accel="1.0" decel="5.0" sigma="0.0" length="4.5" maxSpeed="18.167246520730227" /><vType id="vType_car_8.233299026137045" accel="1.0" decel="5.0" sigma="0.0" length="4.5" maxSpeed="2.2870275072602904" /><vType id="vType_car_14.657549941687531" accel="1.0" decel="5.0" sigma="0.0" length="4.5" maxSpeed="4.071541650468759" /><vType id="vType_car_9.557861583702055" accel="1.0" decel="5.0" sigma="0.0" length="4.5" maxSpeed="2.6549615510283484" /><vType id="vType_car_15.885963156076073" accel="1.0" decel="5.0" sigma="0.0" length="4.5" maxSpeed="4.412767543354465" /><vType id="vType_car_31.41092319257983" accel="1.0" decel="5.0" sigma="0.0" length="4.5" maxSpeed="8.725256442383285" /><vType id="vType_car_23.917796376142427" accel="1.0" decel="5.0" sigma="0.0" length="4.5" maxSpeed="6.64383232670623" /><vType id="vType_car_17.31607821972114" accel="1.0" decel="5.0" sigma="0.0" length="4.5" maxSpeed="4.810021727700316" /><vType id="vType_car_21.45498932794488" accel="1.0" decel="5.0" sigma="0.0" length="4.5" maxSpeed="5.959719257762466" /><vType id="vType_car_21.191102177554104" accel="1.0" decel="5.0" sigma="0.0" length="4.5" maxSpeed="5.886417271542807" /><vType id="vType_car_14.555116491205204" accel="1.0" decel="5.0" sigma="0.0" length="4.5" maxSpeed="4.043087914223668" /><vType id="vType_car_32.333171244207406" accel="1.0" decel="5.0" sigma="0.0" length="4.5" maxSpeed="8.98143645672428" /><vType id="vType_car_19.951300687485283" accel="1.0" decel="5.0" sigma="0.0" length="4.5" maxSpeed="5.542027968745912" /><vType id="vType_car_17.72681861419463" accel="1.0" decel="5.0" sigma="0.0" length="4.5" maxSpeed="4.924116281720731" /><vType id="vType_car_19.009444070190114" accel="1.0" decel="5.0" sigma="0.0" length="4.5" maxSpeed="5.2804011306083645" /><vType id="vType_car_10.27186830989441" accel="1.0" decel="5.0" sigma="0.0" length="4.5" maxSpeed="2.8532967527484474" /><vType id="vType_car_20.196993135354216" accel="1.0" decel="5.0" sigma="0.0" length="4.5" maxSpeed="5.610275870931726" /><vType id="vType_car_17.074157179464315" accel="1.0" decel="5.0" sigma="0.0" length="4.5" maxSpeed="4.742821438740087" /><vType id="vType_car_10.421233615508408" accel="1.0" decel="5.0" sigma="0.0" length="4.5" maxSpeed="2.894787115419002" /><vType id="vType_car_24.555335241030978" accel="1.0" decel="5.0" sigma="0.0" length="4.5" maxSpeed="6.8209264558419385" /><vType id="vType_car_6.331265338846004" accel="1.0" decel="5.0" sigma="0.0" length="4.5" maxSpeed="1.7586848163461122" /><vType id="vType_car_22.81289245861637" accel="1.0" decel="5.0" sigma="0.0" length="4.5" maxSpeed="6.33691457183788" /><vType id="vType_car_29.368202954194203" accel="1.0" decel="5.0" sigma="0.0" length="4.5" maxSpeed="8.157834153942835" /><vType id="vType_car_19.77007575301045" accel="1.0" decel="5.0" sigma="0.0" length="4.5" maxSpeed="5.491687709169569" /><vType id="vType_car_16.690791975180915" accel="1.0" decel="5.0" sigma="0.0" length="4.5" maxSpeed="4.636331104216921" /><vType id="vType_car_15.589735809940004" accel="1.0" decel="5.0" sigma="0.0" length="4.5" maxSpeed="4.330482169427778" /><vType id="vType_car_9.278438169311142" accel="1.0" decel="5.0" sigma="0.0" length="4.5" maxSpeed="2.5773439359197616" /><vType id="vType_car_16.360521609972327" accel="1.0" decel="5.0" sigma="0.0" length="4.5" maxSpeed="4.544589336103424" /><vType id="vType_car_27.99407745483476" accel="1.0" decel="5.0" sigma="0.0" length="4.5" maxSpeed="7.776132626342989" /><vType id="vType_car_15.890836656385195" accel="1.0" decel="5.0" sigma="0.0" length="4.5" maxSpeed="4.414121293440332" /><vType id="vType_car_28.633733245956655" accel="1.0" decel="5.0" sigma="0.0" length="4.5" maxSpeed="7.9538147905435155" /><vType id="vType_car_16.67777156544364" accel="1.0" decel="5.0" sigma="0.0" length="4.5" maxSpeed="4.632714323734344" /><vType id="vType_car_4.075966209582438" accel="1.0" decel="5.0" sigma="0.0" length="4.5" maxSpeed="1.1322128359951216" /><vType id="vType_car_20.993901300945637" accel="1.0" decel="5.0" sigma="0.0" length="4.5" maxSpeed="5.831639250262677" /><vType id="vType_car_17.447638300607693" accel="1.0" decel="5.0" sigma="0.0" length="4.5" maxSpeed="4.846566194613248" /><vType id="vType_car_21.410186208921303" accel="1.0" decel="5.0" sigma="0.0" length="4.5" maxSpeed="5.947273946922584" /><vType id="vType_car_17.52627879145801" accel="1.0" decel="5.0" sigma="0.0" length="4.5" maxSpeed="4.868410775405003" /><vType id="vType_car_20.29588446987028" accel="1.0" decel="5.0" sigma="0.0" length="4.5" maxSpeed="5.637745686075077" /><vType id="vType_car_5.22006451280401" accel="1.0" decel="5.0" sigma="0.0" length="4.5" maxSpeed="1.450017920223336" /><vType id="vType_car_17.29293626632973" accel="1.0" decel="5.0" sigma="0.0" length="4.5" maxSpeed="4.803593407313813" /><vType id="vType_car_30.48151888578593" accel="1.0" decel="5.0" sigma="0.0" length="4.5" maxSpeed="8.467088579384981" /><vType id="vType_car_15.91945726918736" accel="1.0" decel="5.0" sigma="0.0" length="4.5" maxSpeed="4.422071463663156" /><vType id="vType_car_27.578749583305353" accel="1.0" decel="5.0" sigma="0.0" length="4.5" maxSpeed="7.660763773140376" /><vType id="vType_car_28.73027213285084" accel="1.0" decel="5.0" sigma="0.0" length="4.5" maxSpeed="7.980631148014122" /><vType id="vType_car_18.655581325864247" accel="1.0" decel="5.0" sigma="0.0" length="4.5" maxSpeed="5.1821059238511795" /><vType id="vType_car_24.821862982381166" accel="1.0" decel="5.0" sigma="0.0" length="4.5" maxSpeed="6.894961939550324" /><vType id="vType_car_16.951509881486277" accel="1.0" decel="5.0" sigma="0.0" length="4.5" maxSpeed="4.708752744857299" /><vType id="vType_car_16.262983532115513" accel="1.0" decel="5.0" sigma="0.0" length="4.5" maxSpeed="4.517495425587643" /><vType id="vType_car_31.872142793327516" accel="1.0" decel="5.0" sigma="0.0" length="4.5" maxSpeed="8.853372998146533" /><vType id="vType_car_12.450274149754454" accel="1.0" decel="5.0" sigma="0.0" length="4.5" maxSpeed="3.4584094860429038" /><vType id="vType_car_15.633787981172345" accel="1.0" decel="5.0" sigma="0.0" length="4.5" maxSpeed="4.342718883658985" /><vType id="vType_car_28.15088044207457" accel="1.0" decel="5.0" sigma="0.0" length="4.5" maxSpeed="7.81968901168738" /><vType id="vType_car_11.563167493196923" accel="1.0" decel="5.0" sigma="0.0" length="4.5" maxSpeed="3.2119909703324785" /><vType id="vType_car_12.3203780978241" accel="1.0" decel="5.0" sigma="0.0" length="4.5" maxSpeed="3.4223272493955834" /><vType id="vType_car_13.09288971415398" accel="1.0" decel="5.0" sigma="0.0" length="4.5" maxSpeed="3.6369138094872167" /><vType id="vType_car_10.014222469152042" accel="1.0" decel="5.0" sigma="0.0" length="4.5" maxSpeed="2.781728463653345" /><vType id="vType_car_18.09394262479707" accel="1.0" decel="5.0" sigma="0.0" length="4.5" maxSpeed="5.026095173554741" /><vType id="vType_car_24.69896278536337" accel="1.0" decel="5.0" sigma="0.0" length="4.5" maxSpeed="6.860822995934269" /><vType id="vType_car_27.25656192491681" accel="1.0" decel="5.0" sigma="0.0" length="4.5" maxSpeed="7.57126720136578" /><vType id="vType_car_16.72575606553836" accel="1.0" decel="5.0" sigma="0.0" length="4.5" maxSpeed="4.646043351538433" /><vType id="vType_car_15.431401084438656" accel="1.0" decel="5.0" sigma="0.0" length="4.5" maxSpeed="4.28650030123296" /><vType id="vType_car_21.725359237567297" accel="1.0" decel="5.0" sigma="0.0" length="4.5" maxSpeed="6.03482201043536" /><vType id="vType_car_22.10326650802737" accel="1.0" decel="5.0" sigma="0.0" length="4.5" maxSpeed="6.139796252229825" /><vType id="vType_car_9.977707522833434" accel="1.0" decel="5.0" sigma="0.0" length="4.5" maxSpeed="2.771585423009287" /><vType id="vType_car_18.986555454989862" accel="1.0" decel="5.0" sigma="0.0" length="4.5" maxSpeed="5.274043181941628" /><vType id="vType_car_19.945475351125694" accel="1.0" decel="5.0" sigma="0.0" length="4.5" maxSpeed="5.540409819757137" /><vType id="vType_car_31.821148235336732" accel="1.0" decel="5.0" sigma="0.0" length="4.5" maxSpeed="8.839207843149092" /><vType id="vType_car_31.81114664801945" accel="1.0" decel="5.0" sigma="0.0" length="4.5" maxSpeed="8.836429624449847" /><vType id="vType_car_24.321897028538473" accel="1.0" decel="5.0" sigma="0.0" length="4.5" maxSpeed="6.756082507927354" /><vType id="vType_car_36.75964455695114" accel="1.0" decel="5.0" sigma="0.0" length="4.5" maxSpeed="10.21101237693087" /><vType id="vType_car_34.6302686793965" accel="1.0" decel="5.0" sigma="0.0" length="4.5" maxSpeed="9.61951907761014" /><vType id="vType_car_16.306063584050815" accel="1.0" decel="5.0" sigma="0.0" length="4.5" maxSpeed="4.529462106680782" /><vType id="vType_car_16.473381719353974" accel="1.0" decel="5.0" sigma="0.0" length="4.5" maxSpeed="4.575939366487215" /><vType id="vType_car_16.78330119101433" accel="1.0" decel="5.0" sigma="0.0" length="4.5" maxSpeed="4.662028108615092" /><vType id="vType_car_15.056739700223508" accel="1.0" decel="5.0" sigma="0.0" length="4.5" maxSpeed="4.18242769450653" /><vType id="vType_car_17.224633067996503" accel="1.0" decel="5.0" sigma="0.0" length="4.5" maxSpeed="4.784620296665695" /><vType id="vType_car_41.225349734052045" accel="1.0" decel="5.0" sigma="0.0" length="4.5" maxSpeed="11.451486037236679" /><vType id="vType_car_18.120152177521025" accel="1.0" decel="5.0" sigma="0.0" length="4.5" maxSpeed="5.033375604866952" /><vType id="vType_car_15.942816559163514" accel="1.0" decel="5.0" sigma="0.0" length="4.5" maxSpeed="4.428560155323198" /><vType id="vType_car_15.519341051270867" accel="1.0" decel="5.0" sigma="0.0" length="4.5" maxSpeed="4.3109280697974635" /><vType id="vType_car_4.406257116740273" accel="1.0" decel="5.0" sigma="0.0" length="4.5" maxSpeed="1.2239603102056313" /><vType id="vType_car_14.305980268550465" accel="1.0" decel="5.0" sigma="0.0" length="4.5" maxSpeed="3.9738834079306846" /><vType id="vType_car_9.3554365808591" accel="1.0" decel="5.0" sigma="0.0" length="4.5" maxSpeed="2.5987323835719724" /><vType id="vType_car_20.278160533746934" accel="1.0" decel="5.0" sigma="0.0" length="4.5" maxSpeed="5.632822370485259" /><vType id="vType_car_9.773319281246572" accel="1.0" decel="5.0" sigma="0.0" length="4.5" maxSpeed="2.714810911457381" /><vType id="vType_car_7.336921497909638" accel="1.0" decel="5.0" sigma="0.0" length="4.5" maxSpeed="2.038033749419344" /><vType id="vType_car_45.74744285507198" accel="1.0" decel="5.0" sigma="0.0" length="4.5" maxSpeed="12.707623015297772" /><vType id="vType_car_28.342459842032234" accel="1.0" decel="5.0" sigma="0.0" length="4.5" maxSpeed="7.87290551167562" /><vType id="vType_car_52.222985372214254" accel="1.0" decel="5.0" sigma="0.0" length="4.5" maxSpeed="14.50638482561507" /><vType id="vType_car_8.472716285326532" accel="1.0" decel="5.0" sigma="0.0" length="4.5" maxSpeed="2.3535323014795924" /><vType id="vType_car_51.27796484443311" accel="1.0" decel="5.0" sigma="0.0" length="4.5" maxSpeed="14.24387912345364" /><vType id="vType_car_48.11446450914553" accel="1.0" decel="5.0" sigma="0.0" length="4.5" maxSpeed="13.3651290303182" /><vType id="vType_car_2.5184842116935684" accel="1.0" decel="5.0" sigma="0.0" length="4.5" maxSpeed="0.6995789476926578" /><vType id="vType_car_33.76333208460475" accel="1.0" decel="5.0" sigma="0.0" length="4.5" maxSpeed="9.378703356834652" /><vType id="vType_car_37.268113404474626" accel="1.0" decel="5.0" sigma="0.0" length="4.5" maxSpeed="10.352253723465173" /><vType id="vType_car_49.61680575777181" accel="1.0" decel="5.0" sigma="0.0" length="4.5" maxSpeed="13.782446043825502" /><vType id="vType_car_56.13066832450349" accel="1.0" decel="5.0" sigma="0.0" length="4.5" maxSpeed="15.59185231236208" /><vType id="vType_car_10.78707501758959" accel="1.0" decel="5.0" sigma="0.0" length="4.5" maxSpeed="2.9964097271082193" /><vType id="vType_car_7.260348450761744" accel="1.0" decel="5.0" sigma="0.0" length="4.5" maxSpeed="2.0167634585449288" /><vType id="vType_car_40.53634729686383" accel="1.0" decel="5.0" sigma="0.0" length="4.5" maxSpeed="11.260096471351064" /><vType id="vType_car_48.34547722655395" accel="1.0" decel="5.0" sigma="0.0" length="4.5" maxSpeed="13.42929922959832" /><vType id="vType_car_7.081442773496815" accel="1.0" decel="5.0" sigma="0.0" length="4.5" maxSpeed="1.9670674370824486" /><vType id="vType_car_77.98887550304703" accel="1.0" decel="5.0" sigma="0.0" length="4.5" maxSpeed="21.663576528624173" /><vType id="vType_car_11.423060327137673" accel="1.0" decel="5.0" sigma="0.0" length="4.5" maxSpeed="3.173072313093798" /><vType id="vType_car_18.367499950141447" accel="1.0" decel="5.0" sigma="0.0" length="4.5" maxSpeed="5.102083319483735" /><vType id="vType_car_12.57872509644007" accel="1.0" decel="5.0" sigma="0.0" length="4.5" maxSpeed="3.494090304566686" /><vType id="vType_car_27.4438517475069" accel="1.0" decel="5.0" sigma="0.0" length="4.5" maxSpeed="7.62329215208525" /><vType id="vType_car_5.815628064487737" accel="1.0" decel="5.0" sigma="0.0" length="4.5" maxSpeed="1.6154522401354825" /><vType id="vType_car_17.221125409358486" accel="1.0" decel="5.0" sigma="0.0" length="4.5" maxSpeed="4.783645947044024" /><vType id="vType_car_4.787414880956493" accel="1.0" decel="5.0" sigma="0.0" length="4.5" maxSpeed="1.3298374669323592" /><vType id="vType_car_14.911024307197243" accel="1.0" decel="5.0" sigma="0.0" length="4.5" maxSpeed="4.141951196443679" /><vType id="vType_car_22.91159594903943" accel="1.0" decel="5.0" sigma="0.0" length="4.5" maxSpeed="6.364332208066508" /><vType id="vType_car_18.271320733032265" accel="1.0" decel="5.0" sigma="0.0" length="4.5" maxSpeed="5.07536687028674" /><vType id="vType_car_9.910009168022581" accel="1.0" decel="5.0" sigma="0.0" length="4.5" maxSpeed="2.752780324450717" /><vType id="vType_car_27.846048914825648" accel="1.0" decel="5.0" sigma="0.0" length="4.5" maxSpeed="7.735013587451569" /><vType id="vType_car_14.474272083724456" accel="1.0" decel="5.0" sigma="0.0" length="4.5" maxSpeed="4.020631134367904" /><vType id="vType_car_20.781932491753487" accel="1.0" decel="5.0" sigma="0.0" length="4.5" maxSpeed="5.77275902548708" /><vType id="vType_car_24.167727983355526" accel="1.0" decel="5.0" sigma="0.0" length="4.5" maxSpeed="6.713257773154313" /><vType id="vType_car_13.871087168099152" accel="1.0" decel="5.0" sigma="0.0" length="4.5" maxSpeed="3.853079768916431" /><vType id="vType_car_18.746883504830855" accel="1.0" decel="5.0" sigma="0.0" length="4.5" maxSpeed="5.207467640230793" /><vType id="vType_car_6.447595614008579" accel="1.0" decel="5.0" sigma="0.0" length="4.5" maxSpeed="1.7909987816690496" /><vType id="vType_car_21.880892638886042" accel="1.0" decel="5.0" sigma="0.0" length="4.5" maxSpeed="6.0780257330239005" /><vType id="vType_car_13.684852783092893" accel="1.0" decel="5.0" sigma="0.0" length="4.5" maxSpeed="3.801347995303581" /><vType id="vType_car_19.446800133007418" accel="1.0" decel="5.0" sigma="0.0" length="4.5" maxSpeed="5.401888925835394" /><vType id="vType_car_26.55882007256391" accel="1.0" decel="5.0" sigma="0.0" length="4.5" maxSpeed="7.377450020156642" /><vType id="vType_car_22.325602460878155" accel="1.0" decel="5.0" sigma="0.0" length="4.5" maxSpeed="6.20155623913282" /><vType id="vType_car_13.823725135169827" accel="1.0" decel="5.0" sigma="0.0" length="4.5" maxSpeed="3.839923648658285" /><vType id="vType_car_16.915365418442068" accel="1.0" decel="5.0" sigma="0.0" length="4.5" maxSpeed="4.698712616233908" /><vType id="vType_car_24.997148528243326" accel="1.0" decel="5.0" sigma="0.0" length="4.5" maxSpeed="6.943652368956479" /><vType id="vType_truck_19.39412399356284" accel="1.0" decel="5.0" sigma="0.0" length="8" maxSpeed="5.387256664878566" /><vType id="vType_car_21.373709216295453" accel="1.0" decel="5.0" sigma="0.0" length="4.5" maxSpeed="5.937141448970959" /><vType id="vType_car_15.78090301743847" accel="1.0" decel="5.0" sigma="0.0" length="4.5" maxSpeed="4.3835841715106865" /><vType id="vType_car_13.740476812393826" accel="1.0" decel="5.0" sigma="0.0" length="4.5" maxSpeed="3.8167991145538407" /><vType id="vType_car_25.35269871623666" accel="1.0" decel="5.0" sigma="0.0" length="4.5" maxSpeed="7.042416310065739" /><vType id="vType_car_16.32657176277707" accel="1.0" decel="5.0" sigma="0.0" length="4.5" maxSpeed="4.535158822993631" /><vType id="vType_car_3.502365923825253" accel="1.0" decel="5.0" sigma="0.0" length="4.5" maxSpeed="0.9728794232847925" /><vType id="vType_car_16.567703167388814" accel="1.0" decel="5.0" sigma="0.0" length="4.5" maxSpeed="4.602139768719115" /><vType id="vType_car_9.967393664785254" accel="1.0" decel="5.0" sigma="0.0" length="4.5" maxSpeed="2.7687204624403483" /><vType id="vType_car_6.2660234551598375" accel="1.0" decel="5.0" sigma="0.0" length="4.5" maxSpeed="1.7405620708777325" /><vType id="vType_car_4.997061172074366" accel="1.0" decel="5.0" sigma="0.0" length="4.5" maxSpeed="1.388072547798435" /><vType id="vType_car_5.756741406680015" accel="1.0" decel="5.0" sigma="0.0" length="4.5" maxSpeed="1.599094835188893" /><route id="route_north_to_east" edges="north_to_center center_to_east" /><route id="route_north_to_south" edges="north_to_center center_to_south" /><route id="route_north_to_west" edges="north_to_center center_to_west" /><route id="route_east_to_west" edges="east_to_center center_to_west" /><route id="route_east_to_south" edges="east_to_center center_to_south" /><route id="route_east_to_north" edges="east_to_center center_to_north" /><route id="route_south_to_west" edges="south_to_center center_to_west" /><route id="route_south_to_north" edges="south_to_center center_to_north" /><route id="route_south_to_east" edges="south_to_center center_to_east" /><route id="route_west_to_south" edges="west_to_center center_to_south" /><route id="route_west_to_north" edges="west_to_center center_to_north" /><route id="route_west_to_east" edges="west_to_center center_to_east" /><vehicle id="veh3265" type="vType_car_20.341087936853512" route="route_north_to_east" depart="0.03" /><vehicle id="veh3275" type="vType_car_14.355336162146456" route="route_west_to_north" depart="0.03" /><vehicle id="veh3306" type="vType_car_20.128056772848616" route="route_south_to_north" depart="0.03" /><vehicle id="veh3299" type="vType_car_34.008452116893025" route="route_north_to_south" depart="0.03" /><vehicle id="veh3308" type="vType_car_30.516996706124367" route="route_north_to_south" depart="0.23" /><vehicle id="veh3309" type="vType_car_13.826363930122962" route="route_north_to_east" depart="0.33" /><vehicle id="veh3310" type="vType_car_21.14261769614243" route="route_north_to_west" depart="1.37" /><vehicle id="veh3316" type="vType_car_24.925052447580484" route="route_north_to_south" depart="4.37" /><vehicle id="veh3320" type="vType_car_29.549392833855045" route="route_south_to_north" depart="5.14" /><vehicle id="veh3321" type="vType_car_16.469197271149795" route="route_north_to_east" depart="5.34" /><vehicle id="veh3324" type="vType_car_30.658470413198664" route="route_north_to_south" depart="7.20" /><vehicle id="veh3328" type="vType_car_16.523620089026124" route="route_north_to_east" depart="8.17" /><vehicle id="veh3329" type="vType_car_34.579685648400655" route="route_north_to_south" depart="9.61" /><vehicle id="veh3330" type="vType_car_31.599943676100477" route="route_north_to_south" depart="10.74" /><vehicle id="veh3335" type="vType_car_18.60157503280104" route="route_north_to_east" depart="12.74" /><vehicle id="veh3336" type="vType_car_22.51157748523268" route="route_north_to_south" depart="12.84" /><vehicle id="veh3340" type="vType_car_14.573480760301656" route="route_north_to_east" depart="14.91" /><vehicle id="veh3342" type="vType_car_21.039944255454433" route="route_north_to_west" depart="15.28" /><vehicle id="veh3346" type="vType_car_22.149581561629283" route="route_north_to_west" depart="16.91" /><vehicle id="veh3348" type="vType_car_14.845461748809454" route="route_north_to_east" depart="18.28" /><vehicle id="veh3349" type="vType_car_27.469763669629945" route="route_north_to_south" depart="18.68" /><vehicle id="veh3352" type="vType_car_28.4473818018703" route="route_north_to_south" depart="20.55" /><vehicle id="veh3353" type="vType_car_32.4423674617998" route="route_south_to_north" depart="21.21" /><vehicle id="veh3354" type="vType_car_8.35851105938473" route="route_north_to_east" depart="21.71" /><vehicle id="veh3358" type="vType_car_27.223812826239243" route="route_north_to_south" depart="22.68" /><vehicle id="veh3360" type="vType_car_7.263273779206605" route="route_east_to_north" depart="24.65" /><vehicle id="veh3362" type="vType_car_32.240265666011446" route="route_north_to_south" depart="25.05" /><vehicle id="veh3366" type="vType_car_6.499955913138054" route="route_east_to_north" depart="27.02" /><vehicle id="veh3367" type="vType_car_14.626168271142562" route="route_north_to_south" depart="27.82" /><vehicle id="veh3369" type="vType_car_32.33226342352418" route="route_west_to_east" depart="29.32" /><vehicle id="veh3371" type="vType_car_20.935059542147663" route="route_west_to_south" depart="30.89" /><vehicle id="veh3374" type="vType_car_41.5084775779384" route="route_west_to_east" depart="34.25" /><vehicle id="veh3376" type="vType_car_50.77476711803423" route="route_west_to_east" depart="36.92" /><vehicle id="veh3377" type="vType_car_25.690643680991705" route="route_west_to_north" depart="36.96"