<?xml version='1.0' encoding='utf-8'?>
<routes><vType id="vType_car_18.578446457981457" accel="1.0" decel="5.0" sigma="0.0" length="4.5" maxSpeed="5.1606795716615155" /><vType id="vType_car_12.253885704828873" accel="1.0" decel="5.0" sigma="0.0" length="4.5" maxSpeed="3.4038571402302424" /><vType id="vType_car_14.457432357007269" accel="1.0" decel="5.0" sigma="0.0" length="4.5" maxSpeed="4.015953432502019" /><vType id="vType_car_4.6978853597576" accel="1.0" decel="5.0" sigma="0.0" length="4.5" maxSpeed="1.3049681554882222" /><vType id="vType_car_10.65609973685496" accel="1.0" decel="5.0" sigma="0.0" length="4.5" maxSpeed="2.9600277046819334" /><vType id="vType_car_23.96579710029907" accel="1.0" decel="5.0" sigma="0.0" length="4.5" maxSpeed="6.657165861194186" /><vType id="vType_car_29.67792098584246" accel="1.0" decel="5.0" sigma="0.0" length="4.5" maxSpeed="8.243866940511793" /><vType id="vType_car_16.548861100779625" accel="1.0" decel="5.0" sigma="0.0" length="4.5" maxSpeed="4.596905861327674" /><vType id="vType_car_6.069657392673917" accel="1.0" decel="5.0" sigma="0.0" length="4.5" maxSpeed="1.6860159424094212" /><vType id="vType_car_67.1698437849074" accel="1.0" decel="5.0" sigma="0.0" length="4.5" maxSpeed="18.658289940252054" /><vType id="vType_car_3.388394338451522" accel="1.0" decel="5.0" sigma="0.0" length="4.5" maxSpeed="0.9412206495698672" /><vType id="vType_truck_5.444614783912804" accel="1.0" decel="5.0" sigma="0.0" length="8" maxSpeed="1.5123929955313342" /><vType id="vType_truck_23.295028413850517" accel="1.0" decel="5.0" sigma="0.0" length="8" maxSpeed="6.470841226069588" /><vType id="vType_car_1.0213852636312806" accel="1.0" decel="5.0" sigma="0.0" length="4.5" maxSpeed="0.2837181287864668" /><vType id="vType_car_37.981433469248074" accel="1.0" decel="5.0" sigma="0.0" length="4.5" maxSpeed="10.550398185902242" /><vType id="vType_car_3.5940868437710294" accel="1.0" decel="5.0" sigma="0.0" length="4.5" maxSpeed="0.9983574566030637" /><vType id="vType_car_27.084208881055858" accel="1.0" decel="5.0" sigma="0.0" length="4.5" maxSpeed="7.523391355848849" /><vType id="vType_car_20.88623592061941" accel="1.0" decel="5.0" sigma="0.0" length="4.5" maxSpeed="5.801732200172058" /><vType id="vType_car_2.8857631592322135" accel="1.0" decel="5.0" sigma="0.0" length="4.5" maxSpeed="0.8016008775645037" /><vType id="vType_car_4.320940089722828" accel="1.0" decel="5.0" sigma="0.0" length="4.5" maxSpeed="1.2002611360341187" /><vType id="vType_car_5.0344374241685275" accel="1.0" decel="5.0" sigma="0.0" length="4.5" maxSpeed="1.398454840046813" /><vType id="vType_car_19.492366221461428" accel="1.0" decel="5.0" sigma="0.0" length="4.5" maxSpeed="5.4145461726281745" /><vType id="vType_car_17.04815855500121" accel="1.0" decel="5.0" sigma="0.0" length="4.5" maxSpeed="4.735599598611446" /><vType id="vType_car_29.828229106382985" accel="1.0" decel="5.0" sigma="0.0" length="4.5" maxSpeed="8.285619196217496" /><vType id="vType_car_13.719036667906085" accel="1.0" decel="5.0" sigma="0.0" length="4.5" maxSpeed="3.8108435188628014" /><vType id="vType_car_3.777726317540352" accel="1.0" decel="5.0" sigma="0.0" length="4.5" maxSpeed="1.0493684215389867" /><vType id="vType_car_15.953932485002268" accel="1.0" decel="5.0" sigma="0.0" length="4.5" maxSpeed="4.43164791250063" /><vType id="vType_car_3.729667734953153" accel="1.0" decel="5.0" sigma="0.0" length="4.5" maxSpeed="1.0360188152647647" /><vType id="vType_car_9.112768409007083" accel="1.0" decel="5.0" sigma="0.0" length="4.5" maxSpeed="2.531324558057523" /><vType id="vType_car_16.457925758110857" accel="1.0" decel="5.0" sigma="0.0" length="4.5" maxSpeed="4.571646043919682" /><vType id="vType_car_6.833971108527984" accel="1.0" decel="5.0" sigma="0.0" length="4.5" maxSpeed="1.89832530792444" /><vType id="vType_car_3.0403469074870477" accel="1.0" decel="5.0" sigma="0.0" length="4.5" maxSpeed="0.844540807635291" /><vType id="vType_car_1.4587117537601977" accel="1.0" decel="5.0" sigma="0.0" length="4.5" maxSpeed="0.40519770937783267" /><vType id="vType_car_15.314771595578767" accel="1.0" decel="5.0" sigma="0.0" length="4.5" maxSpeed="4.254103220994102" /><vType id="vType_car_8.675436679697384" accel="1.0" decel="5.0" sigma="0.0" length="4.5" maxSpeed="2.409843522138162" /><vType id="vType_car_19.76359388846199" accel="1.0" decel="5.0" sigma="0.0" length="4.5" maxSpeed="5.489887191239442" /><vType id="vType_car_4.407347370463744" accel="1.0" decel="5.0" sigma="0.0" length="4.5" maxSpeed="1.224263158462151" /><vType id="vType_car_26.414823665752312" accel="1.0" decel="5.0" sigma="0.0" length="4.5" maxSpeed="7.337451018264531" /><vType id="vType_car_31.482080605619746" accel="1.0" decel="5.0" sigma="0.0" length="4.5" maxSpeed="8.745022390449929" /><vType id="vType_car_1.416647369077632" accel="1.0" decel="5.0" sigma="0.0" length="4.5" maxSpeed="0.39351315807712" /><vType id="vType_car_43.74064779754321" accel="1.0" decel="5.0" sigma="0.0" length="4.5" maxSpeed="12.150179943762003" /><vType id="vType_car_49.61853921756935" accel="1.0" decel="5.0" sigma="0.0" length="4.5" maxSpeed="13.78292756043593" /><vType id="vType_car_9.378980937684162" accel="1.0" decel="5.0" sigma="0.0" length="4.5" maxSpeed="2.605272482690045" /><vType id="vType_car_50.60072157721201" accel="1.0" decel="5.0" sigma="0.0" length="4.5" maxSpeed="14.055755993670003" /><vType id="vType_car_20.376962592125913" accel="1.0" decel="5.0" sigma="0.0" length="4.5" maxSpeed="5.660267386701642" /><vType id="vType_car_15.797852255108927" accel="1.0" decel="5.0" sigma="0.0" length="4.5" maxSpeed="4.388292293085813" /><vType id="vType_car_3.7777263175403517" accel="1.0" decel="5.0" sigma="0.0" length="4.5" maxSpeed="1.0493684215389865" /><vType id="vType_car_46.30920429527465" accel="1.0" decel="5.0" sigma="0.0" length="4.5" maxSpeed="12.863667859798513" /><vType id="vType_car_5.167140518744749" accel="1.0" decel="5.0" sigma="0.0" length="4.5" maxSpeed="1.4353168107624303" /><vType id="vType_car_26.60524092322627" accel="1.0" decel="5.0" sigma="0.0" length="4.5" maxSpeed="7.390344700896185" /><vType id="vType_car_25.629508678438494" accel="1.0" decel="5.0" sigma="0.0" length="4.5" maxSpeed="7.119307966232915" /><vType id="vType_car_27.98682881978203" accel="1.0" decel="5.0" sigma="0.0" length="4.5" maxSpeed="7.774119116606119" /><vType id="vType_car_4.809470942385712" accel="1.0" decel="5.0" sigma="0.0" length="4.5" maxSpeed="1.3359641506626978" /><vType id="vType_car_3.4312516185173845" accel="1.0" decel="5.0" sigma="0.0" length="4.5" maxSpeed="0.9531254495881624" /><vType id="vType_car_54.35297135202931" accel="1.0" decel="5.0" sigma="0.0" length="4.5" maxSpeed="15.098047597785918" /><vType id="vType_car_16.421353558506944" accel="1.0" decel="5.0" sigma="0.0" length="4.5" maxSpeed="4.561487099585262" /><vType id="vType_car_27.712606328379316" accel="1.0" decel="5.0" sigma="0.0" length="4.5" maxSpeed="7.6979462023275875" /><vType id="vType_car_28.222417766285684" accel="1.0" decel="5.0" sigma="0.0" length="4.5" maxSpeed="7.839560490634912" /><vType id="vType_car_54.16071726337062" accel="1.0" decel="5.0" sigma="0.0" length="4.5" maxSpeed="15.044643684269616" /><vType id="vType_car_10.18477600666002" accel="1.0" decel="5.0" sigma="0.0" length="4.5" maxSpeed="2.82910444629445" /><vType id="vType_car_4.176832699434437" accel="1.0" decel="5.0" sigma="0.0" length="4.5" maxSpeed="1.1602313053984545" /><vType id="vType_car_6.012556200797089" accel="1.0" decel="5.0" sigma="0.0" length="4.5" maxSpeed="1.6701545002214135" /><vType id="vType_car_4.114602511916241" accel="1.0" decel="5.0" sigma="0.0" length="4.5" maxSpeed="1.1429451421989556" /><vType id="vType_car_3.4089028438934577" accel="1.0" decel="5.0" sigma="0.0" length="4.5" maxSpeed="0.9469174566370715" /><vType id="vType_car_24.456185322730285" accel="1.0" decel="5.0" sigma="0.0" length="4.5" maxSpeed="6.793384811869523" /><vType id="vType_car_15.068002943291281" accel="1.0" decel="5.0" sigma="0.0" length="4.5" maxSpeed="4.185556373136467" /><vType id="vType_car_25.79517290725698" accel="1.0" decel="5.0" sigma="0.0" length="4.5" maxSpeed="7.165325807571383" /><vType id="vType_car_20.376110721851767" accel="1.0" decel="5.0" sigma="0.0" length="4.5" maxSpeed="5.660030756069935" /><vType id="vType_car_19.196417935430176" accel="1.0" decel="5.0" sigma="0.0" length="4.5" maxSpeed="5.332338315397271" /><vType id="vType_car_3.3951024804372225" accel="1.0" decel="5.0" sigma="0.0" length="4.5" maxSpeed="0.943084022343673" /><vType id="vType_car_13.322995318431222" accel="1.0" decel="5.0" sigma="0.0" length="4.5" maxSpeed="3.7008320328975612" /><vType id="vType_car_25.849673253584132" accel="1.0" decel="5.0" sigma="0.0" length="4.5" maxSpeed="7.180464792662259" /><vType id="vType_car_18.292039920729547" accel="1.0" decel="5.0" sigma="0.0" length="4.5" maxSpeed="5.0811222002026515" /><vType id="vType_car_21.477750897766644" accel="1.0" decel="5.0" sigma="0.0" length="4.5" maxSpeed="5.96604191604629" /><vType id="vType_car_15.918340067214295" accel="1.0" decel="5.0" sigma="0.0" length="4.5" maxSpeed="4.421761129781749" /><vType id="vType_car_28.112180307839395" accel="1.0" decel="5.0" sigma="0.0" length="4.5" maxSpeed="7.808938974399831" /><vType id="vType_car_17.10850820598365" accel="1.0" decel="5.0" sigma="0.0" length="4.5" maxSpeed="4.752363390551014" /><vType id="vType_car_19.29672177231751" accel="1.0" decel="5.0" sigma="0.0" length="4.5" maxSpeed="5.36020049231042" /><vType id="vType_car_17.467375718585956" accel="1.0" decel="5.0" sigma="0.0" length="4.5" maxSpeed="4.852048810718321" /><vType id="vType_car_17.12521224421776" accel="1.0" decel="5.0" sigma="0.0" length="4.5" maxSpeed="4.7570034011716" /><vType id="vType_car_21.263650305231256" accel="1.0" decel="5.0" sigma="0.0" length="4.5" maxSpeed="5.906569529230905" /><vType id="vType_car_30.90310979250521" accel="1.0" decel="5.0" sigma="0.0" length="4.5" maxSpeed="8.58419716458478" /><vType id="vType_car_14.59042480291188" accel="1.0" decel="5.0" sigma="0.0" length="4.5" maxSpeed="4.052895778586633" /><vType id="vType_car_16.025168558858084" accel="1.0" decel="5.0" sigma="0.0" length="4.5" maxSpeed="4.451435710793912" /><vType id="vType_car_18.34780509956491" accel="1.0" decel="5.0" sigma="0.0" length="4.5" maxSpeed="5.0966125276569185" /><vType id="vType_car_15.922530325869179" accel="1.0" decel="5.0" sigma="0.0" length="4.5" maxSpeed="4.422925090519216" /><vType id="vType_car_16.16970279787948" accel="1.0" decel="5.0" sigma="0.0" length="4.5" maxSpeed="4.491584110522078" /><vType id="vType_car_27.134354142017294" accel="1.0" decel="5.0" sigma="0.0" length="4.5" maxSpeed="7.537320595004804" /><vType id="vType_car_7.6868476615837" accel="1.0" decel="5.0" sigma="0.0" length="4.5" maxSpeed="2.135235461551028" /><vType id="vType_car_20.77994032474344" accel="1.0" decel="5.0" sigma="0.0" length="4.5" maxSpeed="5.7722056457620665" /><vType id="vType_car_16.41311257950863" accel="1.0" decel="5.0" sigma="0.0" length="4.5" maxSpeed="4.559197938752398" /><vType id="vType_car_20.754986905508158" accel="1.0" decel="5.0" sigma="0.0" length="4.5" maxSpeed="5.765274140418932" /><vType id="vType_car_21.394078979393488" accel="1.0" decel="5.0" sigma="0.0" length="4.5" maxSpeed="5.9427997164981905" /><vType id="vType_car_16.84949308734069" accel="1.0" decel="5.0" sigma="0.0" length="4.5" maxSpeed="4.680414746483525" /><vType id="vType_car_3.0451007484055608" accel="1.0" decel="5.0" sigma="0.0" length="4.5" maxSpeed="0.8458613190015446" /><vType id="vType_car_21.061270401637557" accel="1.0" decel="5.0" sigma="0.0" length="4.5" maxSpeed="5.850352889343766" /><vType id="vType_car_15.876718327608142" accel="1.0" decel="5.0" sigma="0.0" length="4.5" maxSpeed="4.410199535446706" /><vType id="vType_car_16.608636955645157" accel="1.0" decel="5.0" sigma="0.0" length="4.5" maxSpeed="4.613510265456988" /><vType id="vType_car_28.139419466630464" accel="1.0" decel="5.0" sigma="0.0" length="4.5" maxSpeed="7.816505407397351" /><vType id="vType_car_21.219660750041818" accel="1.0" decel="5.0" sigma="0.0" length="4.5" maxSpeed="5.8943502083449495" /><vType id="vType_car_8.93145475993739" accel="1.0" decel="5.0" sigma="0.0" length="4.5" maxSpeed="2.4809596555381637" /><vType id="vType_car_18.65265214907141" accel="1.0" decel="5.0" sigma="0.0" length="4.5" maxSpeed="5.181292263630947" /><vType id="vType_car_16.419502256921703" accel="1.0" decel="5.0" sigma="0.0" length="4.5" maxSpeed="4.5609728491449175" /><vType id="vType_car_23.456391118127538" accel="1.0" decel="5.0" sigma="0.0" length="4.5" maxSpeed="6.515664199479872" /><vType id="vType_car_15.882217211416654" accel="1.0" decel="5.0" sigma="0.0" length="4.5" maxSpeed="4.4117270031712925" /><vType id="vType_car_3.4867390774107756" accel="1.0" decel="5.0" sigma="0.0" length="4.5" maxSpeed="0.9685386326141043" /><vType id="vType_car_22.431063209399742" accel="1.0" decel="5.0" sigma="0.0" length="4.5" maxSpeed="6.230850891499928" /><vType id="vType_car_9.725910232022047" accel="1.0" decel="5.0" sigma="0.0" length="4.5" maxSpeed="2.701641731117235" /><vType id="vType_car_30.17583626928623" accel="1.0" decel="5.0" sigma="0.0" length="4.5" maxSpeed="8.382176741468397" /><vType id="vType_car_16.436240405685343" accel="1.0" decel="5.0" sigma="0.0" length="4.5" maxSpeed="4.565622334912595" /><vType id="vType_car_9.653053065738838" accel="1.0" decel="5.0" sigma="0.0" length="4.5" maxSpeed="2.6814036293718995" /><vType id="vType_car_29.68922676349931" accel="1.0" decel="5.0" sigma="0.0" length="4.5" maxSpeed="8.247007434305363" /><vType id="vType_car_4.207774522888559" accel="1.0" decel="5.0" sigma="0.0" length="4.5" maxSpeed="1.168826256357933" /><vType id="vType_car_22.71698186819481" accel="1.0" decel="5.0" sigma="0.0" length="4.5" maxSpeed="6.310272741165225" /><vType id="vType_car_33.97841535269017" accel="1.0" decel="5.0" sigma="0.0" length="4.5" maxSpeed="9.438448709080603" /><vType id="vType_car_5.290014421587904" accel="1.0" decel="5.0" sigma="0.0" length="4.5" maxSpeed="1.4694484504410845" /><vType id="vType_car_15.930759676441276" accel="1.0" decel="5.0" sigma="0.0" length="4.5" maxSpeed="4.425211021233688" /><vType id="vType_car_31.499925500590855" accel="1.0" decel="5.0" sigma="0.0" length="4.5" maxSpeed="8.749979305719682" /><vType id="vType_car_26.497211493554822" accel="1.0" decel="5.0" sigma="0.0" length="4.5" maxSpeed="7.36033652598745" /><vType id="vType_car_21.92811331398718" accel="1.0" decel="5.0" sigma="0.0" length="4.5" maxSpeed="6.091142587218661" /><vType id="vType_car_20.58666862515127" accel="1.0" decel="5.0" sigma="0.0" length="4.5" maxSpeed="5.718519062542019" /><vType id="vType_truck_8.692305881253588" accel="1.0" decel="5.0" sigma="0.0" length="8" maxSpeed="2.41452941145933" /><vType id="vType_car_14.596693225128947" accel="1.0" decel="5.0" sigma="0.0" length="4.5" maxSpeed="4.054637006980263" /><vType id="vType_car_43.06529017067447" accel="1.0" decel="5.0" sigma="0.0" length="4.5" maxSpeed="11.962580602965131" /><vType id="vType_car_7.125172746162336" accel="1.0" decel="5.0" sigma="0.0" length="4.5" maxSpeed="1.9792146517117601" /><vType id="vType_car_3.627375249860996" accel="1.0" decel="5.0" sigma="0.0" length="4.5" maxSpeed="1.0076042360724988" /><vType id="vType_car_31.375449504839604" accel="1.0" decel="5.0" sigma="0.0" length="4.5" maxSpeed="8.715402640233224" /><vType id="vType_car_5.454109551251927" accel="1.0" decel="5.0" sigma="0.0" length="4.5" maxSpeed="1.515030430903313" /><route id="route_north_to_east" edges="north_to_center center_to_east" /><route id="route_north_to_south" edges="north_to_center center_to_south" /><route id="route_north_to_west" edges="north_to_center center_to_west" /><route id="route_east_to_west" edges="east_to_center center_to_west" /><route id="route_east_to_south" edges="east_to_center center_to_south" /><route id="route_east_to_north" edges="east_to_center center_to_north" /><route id="route_south_to_west" edges="south_to_center center_to_west" /><route id="route_south_to_north" edges="south_to_center center_to_north" /><route id="route_south_to_east" edges="south_to_center center_to_east" /><route id="route_west_to_south" edges="west_to_center center_to_south" /><route id="route_west_to_north" edges="west_to_center center_to_north" /><route id="route_west_to_east" edges="west_to_center center_to_east" /><vehicle id="veh628" type="vType_car_18.578446457981457" route="route_west_to_east" depart="0.03" /><vehicle id="veh639" type="vType_car_12.253885704828873" route="route_west_to_north" depart="0.03" /><vehicle id="veh752" type="vType_car_14.457432357007269" route="route_north_to_east" depart="0.03" /><vehicle id="veh758" type="vType_car_23.96579710029907" route="route_north_to_west" depart="0.03" /><vehicle id="veh750" type="vType_car_29.67792098584246" route="route_north_to_west" depart="0.03" /><vehicle id="veh760" type="vType_car_16.548861100779625" route="route_north_to_west" depart="0.03" /><vehicle id="veh765" type="vType_car_6.069657392673917" route="route_east_to_north" depart="0.23" /><vehicle id="veh773" type="vType_car_37.981433469248074" route="route_south_to_north" depart="1.53" /><vehicle id="veh777" type="vType_car_27.084208881055858" route="route_south_to_west" depart="4.44" /><vehicle id="veh779" type="vType_car_20.88623592061941" route="route_south_to_north" depart="4.64" /><vehicle id="veh785" type="vType_car_19.492366221461428" route="route_south_to_north" depart="6.84" /><vehicle id="veh790" type="vType_car_17.04815855500121" route="route_north_to_east" depart="8.07" /><vehicle id="veh791" type="vType_car_29.828229106382985" route="route_south_to_west" depart="8.10" /><vehicle id="veh792" type="vType_car_13.719036667906085" route="route_north_to_south" depart="9.71" /><vehicle id="veh796" type="vType_car_15.953932485002268" route="route_north_to_east" depart="11.17" /><vehicle id="veh798" type="vType_car_9.112768409007083" route="route_east_to_north" depart="11.41" /><vehicle id="veh799" type="vType_car_16.457925758110857" route="route_north_to_east" depart="14.01" /><vehicle id="veh804" type="vType_car_15.314771595578767" route="route_north_to_east" depart="16.88" /><vehicle id="veh808" type="vType_car_8.675436679697384" route="route_north_to_east" depart="19.31" /><vehicle id="veh809" type="vType_car_19.76359388846199" route="route_west_to_north" depart="19.78" /><vehicle id="veh813" type="vType_car_26.414823665752312" route="route_west_to_south" depart="24.08" /><vehicle id="veh815" type="vType_car_31.482080605619746" route="route_west_to_south" depart="26.55" /><vehicle id="veh819" type="vType_car_43.74064779754321" route="route_west_to_east" depart="28.28" /><vehicle id="veh821" type="vType_car_49.61853921756935" route="route_west_to_east" depart="30.49" /><vehicle id="veh820" type="vType_car_9.378980937684162" route="route_west_to_north" depart="31.79" /><vehicle id="veh824" type="vType_car_50.60072157721201" route="route_west_to_east" depart="32.45" /><vehicle id="veh825" type="vType_car_20.376962592125913" route="route_east_to_west" depart="33.52" /><vehicle id="veh827" type="vType_car_15.797852255108927" route="route_east_to_south" depart="33.79" /><vehicle id="veh830" type="vType_car_46.30920429527465" route="route_west_to_east" depart="34.42" /><vehicle id="veh836" type="vType_car_26.60524092322627" route="route_west_to_south" depart="37.16" /><vehicle id="veh837" type="vType_car_25.629508678438494" route="route_east_to_west" depart="37.42" /><vehicle id="veh839" type="vType_car_27.98682881978203" route="route_west_to_south" depart="39.06" /><vehicle id="veh843" type="vType_car_54.35297135202931" route="route_west_to_east" depart="42.83" /><vehicle id="veh845" type="vType_car_16.421353558506944" route="route_east_to_south" depart="45.89" /><vehicle id="veh848" type="vType_car_27.712606328379316" route="route_west_to_south" depart="46.23" /><vehicle id="veh849" type="vType_car_28.222417766285684" route="route_east_to_west" depart="46.43" /><vehicle id="veh853" type="vType_car_54.16071726337062" route="route_west_to_east" depart="48.10" /><vehicle id="veh854" type="vType_car_10.18477600666002" route="route_east_to_north" depart="48.30" /><vehicle id="veh859" type="vType_car_24.456185322730285" route="route_north_to_west" depart="60.47" /><vehicle id="veh861" type="vType_car_15.068002943291281" route="route_north_to_east" depart="61.17" /><vehicle id="veh862" type="vType_car_25.79517290725698" route="route_north_to_south" depart="62.40" /><vehicle id="veh863" type="vType_car_20.376110721851767" route="route_north_to_west" depart="64.14" /><vehicle id="veh864" type="vType_car_19.196417935430176" route="route_north_to_east" depart="64.51" /><vehicle id="veh867" type="vType_car_13.322995318431222" route="route_north_to_east" depart="65.44" /><vehicle id="veh868" type="vType_car_25.849673253584132" route="route_north_to_south" depart="67.14" /><vehicle id="veh870" type="vType_car_18.292039920729547" route="route_north_to_east" depart="69.24" /><vehicle id="veh871" type="vType_car_21.477750897766644" route="route_north_to_west" depart="69.28" /><vehicle id="veh873" type="vType_car_15.918340067214295" route="route_north_to_east" depart="71.24" /><vehicle id="veh874" type="vType_car_28.112180307839395" route="route_north_to_south" depart="71.81" /><vehicle id="veh875" type="vType_car_17.10850820598365" route="route_north_to_east" depart="72.28" /><vehicle id="veh876" type="vType_car_19.29672177231751" route="route_north_to_west" depart="74.18" /><vehicle id="veh877" type="vType_car_17.467375718585956" route="route_north_to_east" depart="75.75" /><vehicle id="veh878" type="vType_car_17.12521224421776" route="route_north_to_east" depart="77.28" /><vehicle id="veh879" type="vType_car_21.263650305231256" route="route_north_to_west" depart="77.31" /><vehicle id="veh880" type="vType_car_30.90310979250521" route="route_north_to_south" depart="78.71" /><vehicle id="veh881" type="vType_car_14.59042480291188" route="route_north_to_east" depart="79.41" /><vehicle id="veh882" type="vType_car_16.025168558858084" route="route_north_to_east" depart="81.82" /><vehicle id="veh883" type="vType_car_18.34780509956491" route="route_north_to_west" depart="82.08" /><vehicle id="veh884" type="vType_car_15.922530325869179" route="route_north_to_east" depart="83.72" /><vehicle id="veh886" type="vType_car_16.16970279787948" route="route_north_to_east" depart="85.68" /><vehicle id="veh887" type="vType_car_27.134354142017294" route="route_north_to_south" depart="86.82" /><vehicle id="veh889" type="vType_car_20.77994032474344" route="route_north_to_west" depart="89.15" /><vehicle id="veh890" type="vType_car_16.41311257950863" route="route_north_to_east" depart="90.05" /><vehicle id="veh893" type="vType_car_20.754986905508158" route="route_north_to_east" depart="90.92" /><vehicle id="veh895" type="vType_car_21.394078979393488" route="route_north_to_west" depart="91.25" /><vehicle id="veh896" type="vType_car_16.84949308734069" route="route_north_to_east" depart="91.25" /><vehicle id="veh899" type="vType_car_21.061270401637557" route="route_north_to_west" depart="92.72" /><vehicle id="veh900" type="vType_car_15.876718327608142" route="route_north_to_east" depart="92.92" /><vehicle id="veh902" type="vType_car_16.608636955645157" route="route_north_to_east" depart="95.49" /><vehicle id="veh903" type="vType_car_28.139419466630464" route="route_north_to_south" depart="96.19" /><vehicle id="veh904" type="vType_car_21.219660750041818" route="route_north_to_west" depart="96.42" /><vehicle id="veh905" type="vType_car_8.93145475993739" route="route_north_to_east" depart="97.06" /><vehicle id="veh908" type="vType_car_18.65265214907141" route="route_north_to_west" depart="99.19" /><vehicle id="veh909" type="vType_car_16.419502256921703" route="route_north_to_east" depart="99.26" /><vehicle id="veh910" type="vType_car_23.456391118127538" route="route_north_to_south" depart="100.43" /><vehicle id="veh911" type="vType_car_15.882217211416654" route="route_north_to_east" depart="102.66" /><vehicle id="veh915" type="vType_car_22.431063209399742" route="route_north_to_west" depart="104.60" /><vehicle id="veh917" type="vType_car_9.725910232022047" route="route_east_to_north" depart="105.36" /><vehicle id="veh918" type="vType_car_30.17583626928623" route="route_north_to_south" depart="105.96" /><vehicle id="veh920" type="vType_car_16.436240405685343" route="route_north_to_east" depart="106.33" /><vehicle id="veh923" type="vType_car_9.653053065738838" route="route_east_to_north" depart="106.63" /><vehicle id="veh925" type="vType_car_29.68922676349931" route="route_north_to_south" depart="107.70" /><vehicle id="veh928" type="vType_car_22.71698186819481" route="route_north_to_west" depart="109.70" /><vehicle id="veh930" type="vType_car_33.97841535269017" route="route_north_to_south" depart="110.57" /><vehicle id="veh932" type="vType_car_15.930759676441276" route="route_south_to_north" depart="112.40" /><vehicle id="veh934" type="vType_car_26.497211493554822" route="route_north_to_south" depart="113.43" /><vehicle id="veh939" type="vType_car_21.92811331398718" route="route_south_to_north" depart="115.24" /><vehicle id="veh940" type="vType_car_20.58666862515127" route="route_south_to_north" depart="115.27" /><vehicle id="veh945" type="vType_car_43.06529017067447" route="route_south_to_north" depart="116.54" /><vehicle id="veh949" type="vType_car_31.375449504839604" route="route_south_to_north" depart="117.60" /></routes>