<?xml version='1.0' encoding='utf-8'?>
<routes><vType id="vType_car_3.1634285163076274" accel="1.0" decel="5.0" sigma="0.0" length="4.5" maxSpeed="0.8787301434187854" /><vType id="vType_car_28.841157914098456" accel="1.0" decel="5.0" sigma="0.0" length="4.5" maxSpeed="8.011432753916237" /><vType id="vType_car_5.509994311151368" accel="1.0" decel="5.0" sigma="0.0" length="4.5" maxSpeed="1.5305539753198243" /><vType id="vType_car_2.815532896535608" accel="1.0" decel="5.0" sigma="0.0" length="4.5" maxSpeed="0.7820924712598911" /><vType id="vType_car_2.9185420073588766" accel="1.0" decel="5.0" sigma="0.0" length="4.5" maxSpeed="0.8107061131552434" /><vType id="vType_car_3.042282882824514" accel="1.0" decel="5.0" sigma="0.0" length="4.5" maxSpeed="0.845078578562365" /><vType id="vType_car_6.269895597952051" accel="1.0" decel="5.0" sigma="0.0" length="4.5" maxSpeed="1.741637666097792" /><vType id="vType_car_4.999163077218914" accel="1.0" decel="5.0" sigma="0.0" length="4.5" maxSpeed="1.3886564103385872" /><vType id="vType_car_11.766816382558618" accel="1.0" decel="5.0" sigma="0.0" length="4.5" maxSpeed="3.268560106266283" /><vType id="vType_car_24.80300803595816" accel="1.0" decel="5.0" sigma="0.0" length="4.5" maxSpeed="6.889724454432822" /><vType id="vType_car_3.841036024378649" accel="1.0" decel="5.0" sigma="0.0" length="4.5" maxSpeed="1.0669544512162914" /><vType id="vType_car_13.019923791349964" accel="1.0" decel="5.0" sigma="0.0" length="4.5" maxSpeed="3.616645497597212" /><vType id="vType_car_2.7091954850991855" accel="1.0" decel="5.0" sigma="0.0" length="4.5" maxSpeed="0.7525543014164404" /><vType id="vType_car_3.688786194794689" accel="1.0" decel="5.0" sigma="0.0" length="4.5" maxSpeed="1.0246628318874136" /><vType id="vType_car_3.8673898921897067" accel="1.0" decel="5.0" sigma="0.0" length="4.5" maxSpeed="1.0742749700526963" /><vType id="vType_car_6.71338292842887" accel="1.0" decel="5.0" sigma="0.0" length="4.5" maxSpeed="1.8648285912302416" /><vType id="vType_car_4.035872611691035" accel="1.0" decel="5.0" sigma="0.0" length="4.5" maxSpeed="1.1210757254697319" /><vType id="vType_car_58.50546801892703" accel="1.0" decel="5.0" sigma="0.0" length="4.5" maxSpeed="16.251518894146397" /><vType id="vType_car_5.808722085848543" accel="1.0" decel="5.0" sigma="0.0" length="4.5" maxSpeed="1.6135339127357062" /><vType id="vType_car_28.186305624697702" accel="1.0" decel="5.0" sigma="0.0" length="4.5" maxSpeed="7.829529340193806" /><vType id="vType_car_34.56430927526475" accel="1.0" decel="5.0" sigma="0.0" length="4.5" maxSpeed="9.601197020906874" /><vType id="vType_car_39.73436632132389" accel="1.0" decel="5.0" sigma="0.0" length="4.5" maxSpeed="11.037323978145524" /><vType id="vType_car_3.2576260812420235" accel="1.0" decel="5.0" sigma="0.0" length="4.5" maxSpeed="0.9048961336783399" /><vType id="vType_car_33.936037353702346" accel="1.0" decel="5.0" sigma="0.0" length="4.5" maxSpeed="9.426677042695095" /><vType id="vType_car_49.930451627590195" accel="1.0" decel="5.0" sigma="0.0" length="4.5" maxSpeed="13.869569896552832" /><vType id="vType_car_3.053079384329505" accel="1.0" decel="5.0" sigma="0.0" length="4.5" maxSpeed="0.8480776067581958" /><vType id="vType_car_40.818609919427146" accel="1.0" decel="5.0" sigma="0.0" length="4.5" maxSpeed="11.33850275539643" /><vType id="vType_car_37.125516621567016" accel="1.0" decel="5.0" sigma="0.0" length="4.5" maxSpeed="10.312643505990838" /><vType id="vType_car_5.233937861788938" accel="1.0" decel="5.0" sigma="0.0" length="4.5" maxSpeed="1.453871628274705" /><vType id="vType_car_1.8956262389917153" accel="1.0" decel="5.0" sigma="0.0" length="4.5" maxSpeed="0.5265628441643654" /><vType id="vType_car_39.3303585047111" accel="1.0" decel="5.0" sigma="0.0" length="4.5" maxSpeed="10.925099584641972" /><vType id="vType_car_33.248717801123824" accel="1.0" decel="5.0" sigma="0.0" length="4.5" maxSpeed="9.235754944756618" /><vType id="vType_car_32.32408166822506" accel="1.0" decel="5.0" sigma="0.0" length="4.5" maxSpeed="8.978911574506961" /><vType id="vType_car_30.84015840955356" accel="1.0" decel="5.0" sigma="0.0" length="4.5" maxSpeed="8.566710669320432" /><vType id="vType_car_3.8311997190899265" accel="1.0" decel="5.0" sigma="0.0" length="4.5" maxSpeed="1.0642221441916462" /><vType id="vType_car_5.50389791402879" accel="1.0" decel="5.0" sigma="0.0" length="4.5" maxSpeed="1.5288605316746637" /><vType id="vType_car_2.3272447983994513" accel="1.0" decel="5.0" sigma="0.0" length="4.5" maxSpeed="0.646456888444292" /><vType id="vType_car_1.862837028371318" accel="1.0" decel="5.0" sigma="0.0" length="4.5" maxSpeed="0.5174547301031439" /><vType id="vType_car_3.3372961237654803" accel="1.0" decel="5.0" sigma="0.0" length="4.5" maxSpeed="0.9270267010459667" /><vType id="vType_car_2.630813387248411" accel="1.0" decel="5.0" sigma="0.0" length="4.5" maxSpeed="0.7307814964578919" /><vType id="vType_bus_25.102037703780443" accel="1.0" decel="5.0" sigma="0.0" length="13" maxSpeed="6.9727882510501225" /><vType id="vType_car_6.186282514517781" accel="1.0" decel="5.0" sigma="0.0" length="4.5" maxSpeed="1.7184118095882723" /><vType id="vType_car_2.766589646096017" accel="1.0" decel="5.0" sigma="0.0" length="4.5" maxSpeed="0.7684971239155602" /><vType id="vType_car_7.05385566208197" accel="1.0" decel="5.0" sigma="0.0" length="4.5" maxSpeed="1.959404350578325" /><vType id="vType_car_3.9080026014349456" accel="1.0" decel="5.0" sigma="0.0" length="4.5" maxSpeed="1.0855562781763737" /><vType id="vType_car_2.195706068330172" accel="1.0" decel="5.0" sigma="0.0" length="4.5" maxSpeed="0.6099183523139367" /><vType id="vType_car_18.88798217299954" accel="1.0" decel="5.0" sigma="0.0" length="4.5" maxSpeed="5.246661714722094" /><vType id="vType_car_10.09971178272355" accel="1.0" decel="5.0" sigma="0.0" length="4.5" maxSpeed="2.805475495200986" /><vType id="vType_car_17.59490973313515" accel="1.0" decel="5.0" sigma="0.0" length="4.5" maxSpeed="4.887474925870875" /><vType id="vType_car_2.4193693857093814" accel="1.0" decel="5.0" sigma="0.0" length="4.5" maxSpeed="0.6720470515859392" /><vType id="vType_car_2.680419504946048" accel="1.0" decel="5.0" sigma="0.0" length="4.5" maxSpeed="0.7445609735961245" /><vType id="vType_car_14.679421647343784" accel="1.0" decel="5.0" sigma="0.0" length="4.5" maxSpeed="4.077617124262162" /><vType id="vType_car_15.007024010569985" accel="1.0" decel="5.0" sigma="0.0" length="4.5" maxSpeed="4.168617780713885" /><vType id="vType_car_3.0105881825809413" accel="1.0" decel="5.0" sigma="0.0" length="4.5" maxSpeed="0.8362744951613725" /><vType id="vType_car_11.758540131031522" accel="1.0" decel="5.0" sigma="0.0" length="4.5" maxSpeed="3.266261147508756" /><vType id="vType_car_15.697086743413157" accel="1.0" decel="5.0" sigma="0.0" length="4.5" maxSpeed="4.360301873170322" /><vType id="vType_car_21.699201812079654" accel="1.0" decel="5.0" sigma="0.0" length="4.5" maxSpeed="6.027556058911014" /><vType id="vType_car_2.540232311415433" accel="1.0" decel="5.0" sigma="0.0" length="4.5" maxSpeed="0.705620086504287" /><vType id="vType_car_45.577490669798216" accel="1.0" decel="5.0" sigma="0.0" length="4.5" maxSpeed="12.660414074943949" /><vType id="vType_car_21.05714173099211" accel="1.0" decel="5.0" sigma="0.0" length="4.5" maxSpeed="5.849206036386698" /><vType id="vType_car_3.7782911564888004" accel="1.0" decel="5.0" sigma="0.0" length="4.5" maxSpeed="1.049525321246889" /><vType id="vType_car_12.560517671665867" accel="1.0" decel="5.0" sigma="0.0" length="4.5" maxSpeed="3.489032686573852" /><route id="route_north_to_east" edges="north_to_center center_to_east" /><route id="route_north_to_south" edges="north_to_center center_to_south" /><route id="route_north_to_west" edges="north_to_center center_to_west" /><route id="route_east_to_west" edges="east_to_center center_to_west" /><route id="route_east_to_south" edges="east_to_center center_to_south" /><route id="route_east_to_north" edges="east_to_center center_to_north" /><route id="route_south_to_west" edges="south_to_center center_to_west" /><route id="route_south_to_north" edges="south_to_center center_to_north" /><route id="route_south_to_east" edges="south_to_center center_to_east" /><route id="route_west_to_south" edges="west_to_center center_to_south" /><route id="route_west_to_north" edges="west_to_center center_to_north" /><route id="route_west_to_east" edges="west_to_center center_to_east" /><vehicle id="veh816" type="vType_car_28.841157914098456" route="route_east_to_west" depart="0.05" /><vehicle id="veh886" type="vType_car_24.80300803595816" route="route_east_to_west" depart="0.05" /><vehicle id="veh939" type="vType_car_58.50546801892703" route="route_west_to_east" depart="2.23" /><vehicle id="veh941" type="vType_car_28.186305624697702" route="route_east_to_west" depart="3.51" /><vehicle id="veh946" type="vType_car_33.936037353702346" route="route_east_to_west" depart="7.83" /><vehicle id="veh948" type="vType_car_49.930451627590195" route="route_west_to_east" depart="8.24" /><vehicle id="veh953" type="vType_car_40.818609919427146" route="route_west_to_east" depart="11.66" /><vehicle id="veh955" type="vType_car_37.125516621567016" route="route_east_to_west" depart="11.89" /><vehicle id="veh959" type="vType_car_39.3303585047111" route="route_east_to_west" depart="14.16" /><vehicle id="veh960" type="vType_car_33.248717801123824" route="route_east_to_west" depart="14.30" /><vehicle id="veh961" type="vType_car_32.32408166822506" route="route_west_to_south" depart="15.89" /><vehicle id="veh965" type="vType_car_30.84015840955356" route="route_west_to_east" depart="19.04" /><vehicle id="veh977" type="vType_bus_25.102037703780443" route="route_north_to_west" depart="32.11" /><vehicle id="veh987" type="vType_car_18.88798217299954" route="route_east_to_south" depart="42.67" /><vehicle id="veh988" type="vType_car_10.09971178272355" route="route_south_to_east" depart="42.77" /><vehicle id="veh989" type="vType_car_17.59490973313515" route="route_east_to_south" depart="43.81" /><vehicle id="veh993" type="vType_car_14.679421647343784" route="route_south_to_east" depart="44.27" /><vehicle id="veh995" type="vType_car_15.007024010569985" route="route_east_to_south" depart="46.41" /><vehicle id="veh998" type="vType_car_11.758540131031522" route="route_east_to_south" depart="47.27" /><vehicle id="veh1004" type="vType_car_21.699201812079654" route="route_south_to_east" depart="51.10" /><vehicle id="veh1006" type="vType_car_45.577490669798216" route="route_east_to_west" depart="53.83" /><vehicle id="veh1008" type="vType_car_21.05714173099211" route="route_south_to_east" depart="54.88" /></routes>