<?xml version='1.0' encoding='utf-8'?>
<routes><vType id="vType_car_16.978814219141096" accel="1.0" decel="5.0" sigma="0.0" length="4.5" maxSpeed="4.716337283094749" /><vType id="vType_car_3.8623519410520726" accel="1.0" decel="5.0" sigma="0.0" length="4.5" maxSpeed="1.0728755391811313" /><vType id="vType_car_67.9347180950674" accel="1.0" decel="5.0" sigma="0.0" length="4.5" maxSpeed="18.87075502640761" /><vType id="vType_car_4.720235351210658" accel="1.0" decel="5.0" sigma="0.0" length="4.5" maxSpeed="1.311176486447405" /><vType id="vType_car_12.060485327577808" accel="1.0" decel="5.0" sigma="0.0" length="4.5" maxSpeed="3.3501348132160578" /><vType id="vType_car_18.39892898204484" accel="1.0" decel="5.0" sigma="0.0" length="4.5" maxSpeed="5.110813606123567" /><vType id="vType_car_3.77763908640489" accel="1.0" decel="5.0" sigma="0.0" length="4.5" maxSpeed="1.049344190668025" /><vType id="vType_car_3.562034317866539" accel="1.0" decel="5.0" sigma="0.0" length="4.5" maxSpeed="0.9894539771851497" /><vType id="vType_car_4.465780572749345" accel="1.0" decel="5.0" sigma="0.0" length="4.5" maxSpeed="1.2404946035414848" /><vType id="vType_car_28.72280828893289" accel="1.0" decel="5.0" sigma="0.0" length="4.5" maxSpeed="7.978557858036913" /><vType id="vType_car_5.7324495271349" accel="1.0" decel="5.0" sigma="0.0" length="4.5" maxSpeed="1.5923470908708055" /><vType id="vType_car_6.335293343746153" accel="1.0" decel="5.0" sigma="0.0" length="4.5" maxSpeed="1.7598037065961536" /><vType id="vType_car_6.176290560916464" accel="1.0" decel="5.0" sigma="0.0" length="4.5" maxSpeed="1.71563626692124" /><vType id="vType_car_21.249558719765336" accel="1.0" decel="5.0" sigma="0.0" length="4.5" maxSpeed="5.902655199934816" /><vType id="vType_car_38.03134632221847" accel="1.0" decel="5.0" sigma="0.0" length="4.5" maxSpeed="10.564262867282908" /><vType id="vType_car_29.76100391024335" accel="1.0" decel="5.0" sigma="0.0" length="4.5" maxSpeed="8.266945530623152" /><vType id="vType_car_30.797051108985" accel="1.0" decel="5.0" sigma="0.0" length="4.5" maxSpeed="8.554736419162499" /><vType id="vType_car_16.611638776289592" accel="1.0" decel="5.0" sigma="0.0" length="4.5" maxSpeed="4.6143441045248865" /><vType id="vType_car_6.99031097675824" accel="1.0" decel="5.0" sigma="0.0" length="4.5" maxSpeed="1.941753049099511" /><vType id="vType_car_19.888481174425284" accel="1.0" decel="5.0" sigma="0.0" length="4.5" maxSpeed="5.524578104007023" /><vType id="vType_car_27.089870528746097" accel="1.0" decel="5.0" sigma="0.0" length="4.5" maxSpeed="7.524964035762805" /><vType id="vType_car_36.36624383702828" accel="1.0" decel="5.0" sigma="0.0" length="4.5" maxSpeed="10.101734399174521" /><vType id="vType_car_17.993468420125705" accel="1.0" decel="5.0" sigma="0.0" length="4.5" maxSpeed="4.99818567225714" /><vType id="vType_car_16.305150975375636" accel="1.0" decel="5.0" sigma="0.0" length="4.5" maxSpeed="4.52920860427101" /><vType id="vType_car_18.63187537217089" accel="1.0" decel="5.0" sigma="0.0" length="4.5" maxSpeed="5.175520936714135" /><vType id="vType_car_18.536095087036532" accel="1.0" decel="5.0" sigma="0.0" length="4.5" maxSpeed="5.148915301954593" /><vType id="vType_bus_22.315796082615687" accel="1.0" decel="5.0" sigma="0.0" length="13" maxSpeed="6.198832245171024" /><vType id="vType_car_4.299222200851428" accel="1.0" decel="5.0" sigma="0.0" length="4.5" maxSpeed="1.1942283891253966" /><vType id="vType_car_16.252361486365455" accel="1.0" decel="5.0" sigma="0.0" length="4.5" maxSpeed="4.514544857323737" /><vType id="vType_car_25.68133067439771" accel="1.0" decel="5.0" sigma="0.0" length="4.5" maxSpeed="7.133702965110475" /><vType id="vType_car_6.969643055025922" accel="1.0" decel="5.0" sigma="0.0" length="4.5" maxSpeed="1.9360119597294227" /><vType id="vType_car_3.1836134190726755" accel="1.0" decel="5.0" sigma="0.0" length="4.5" maxSpeed="0.8843370608535209" /><vType id="vType_car_17.268077459741228" accel="1.0" decel="5.0" sigma="0.0" length="4.5" maxSpeed="4.796688183261452" /><vType id="vType_car_3.6648646460834793" accel="1.0" decel="5.0" sigma="0.0" length="4.5" maxSpeed="1.0180179572454109" /><vType id="vType_car_15.46375257055795" accel="1.0" decel="5.0" sigma="0.0" length="4.5" maxSpeed="4.2954868251549865" /><vType id="vType_truck_22.3412446007918" accel="1.0" decel="5.0" sigma="0.0" length="8" maxSpeed="6.205901277997722" /><vType id="vType_car_19.02424391169934" accel="1.0" decel="5.0" sigma="0.0" length="4.5" maxSpeed="5.284512197694261" /><vType id="vType_car_25.593975017233646" accel="1.0" decel="5.0" sigma="0.0" length="4.5" maxSpeed="7.109437504787124" /><vType id="vType_car_2.143130842698294" accel="1.0" decel="5.0" sigma="0.0" length="4.5" maxSpeed="0.5953141229717483" /><vType id="vType_car_18.575633113373783" accel="1.0" decel="5.0" sigma="0.0" length="4.5" maxSpeed="5.159898087048273" /><vType id="vType_car_27.197413482006624" accel="1.0" decel="5.0" sigma="0.0" length="4.5" maxSpeed="7.554837078335173" /><vType id="vType_car_18.2852916015688" accel="1.0" decel="5.0" sigma="0.0" length="4.5" maxSpeed="5.079247667102445" /><vType id="vType_car_19.508976971527133" accel="1.0" decel="5.0" sigma="0.0" length="4.5" maxSpeed="5.419160269868648" /><vType id="vType_car_3.637726527649153" accel="1.0" decel="5.0" sigma="0.0" length="4.5" maxSpeed="1.0104795910136537" /><vType id="vType_car_22.18196182165855" accel="1.0" decel="5.0" sigma="0.0" length="4.5" maxSpeed="6.161656061571819" /><vType id="vType_car_3.128959037718802" accel="1.0" decel="5.0" sigma="0.0" length="4.5" maxSpeed="0.8691552882552227" /><vType id="vType_car_17.883475638949157" accel="1.0" decel="5.0" sigma="0.0" length="4.5" maxSpeed="4.967632121930321" /><vType id="vType_car_6.1916638426880395" accel="1.0" decel="5.0" sigma="0.0" length="4.5" maxSpeed="1.7199066229688997" /><vType id="vType_car_3.6756901833863833" accel="1.0" decel="5.0" sigma="0.0" length="4.5" maxSpeed="1.021025050940662" /><vType id="vType_car_3.8179190561701124" accel="1.0" decel="5.0" sigma="0.0" length="4.5" maxSpeed="1.0605330711583645" /><vType id="vType_car_28.73463312948289" accel="1.0" decel="5.0" sigma="0.0" length="4.5" maxSpeed="7.98184253596747" /><vType id="vType_car_37.14379624080713" accel="1.0" decel="5.0" sigma="0.0" length="4.5" maxSpeed="10.31772117800198" /><vType id="vType_car_10.38841805653463" accel="1.0" decel="5.0" sigma="0.0" length="4.5" maxSpeed="2.8856716823707305" /><vType id="vType_car_6.434462762904264" accel="1.0" decel="5.0" sigma="0.0" length="4.5" maxSpeed="1.7873507674734066" /><vType id="vType_car_36.641969619623225" accel="1.0" decel="5.0" sigma="0.0" length="4.5" maxSpeed="10.178324894339784" /><vType id="vType_car_17.91682920299235" accel="1.0" decel="5.0" sigma="0.0" length="4.5" maxSpeed="4.976897000831208" /><vType id="vType_car_10.837960337675359" accel="1.0" decel="5.0" sigma="0.0" length="4.5" maxSpeed="3.0105445382431553" /><vType id="vType_car_4.222326047694476" accel="1.0" decel="5.0" sigma="0.0" length="4.5" maxSpeed="1.1728683465817988" /><vType id="vType_car_33.08760168501045" accel="1.0" decel="5.0" sigma="0.0" length="4.5" maxSpeed="9.191000468058457" /><vType id="vType_car_4.332598208571492" accel="1.0" decel="5.0" sigma="0.0" length="4.5" maxSpeed="1.2034995023809698" /><vType id="vType_car_35.44981169331932" accel="1.0" decel="5.0" sigma="0.0" length="4.5" maxSpeed="9.847169914810921" /><vType id="vType_car_9.77216670921272" accel="1.0" decel="5.0" sigma="0.0" length="4.5" maxSpeed="2.7144907525590884" /><vType id="vType_car_4.767838559325959" accel="1.0" decel="5.0" sigma="0.0" length="4.5" maxSpeed="1.3243995998127664" /><vType id="vType_car_12.513236361349335" accel="1.0" decel="5.0" sigma="0.0" length="4.5" maxSpeed="3.475898989263704" /><vType id="vType_car_4.090588955072812" accel="1.0" decel="5.0" sigma="0.0" length="4.5" maxSpeed="1.136274709742448" /><vType id="vType_car_4.723087295897823" accel="1.0" decel="5.0" sigma="0.0" length="4.5" maxSpeed="1.3119686933049508" /><vType id="vType_car_1.618118567754406" accel="1.0" decel="5.0" sigma="0.0" length="4.5" maxSpeed="0.44947737993177944" /><vType id="vType_car_11.290983433884058" accel="1.0" decel="5.0" sigma="0.0" length="4.5" maxSpeed="3.1363842871900163" /><vType id="vType_car_4.17860795830018" accel="1.0" decel="5.0" sigma="0.0" length="4.5" maxSpeed="1.160724432861161" /><vType id="vType_car_2.813474632050994" accel="1.0" decel="5.0" sigma="0.0" length="4.5" maxSpeed="0.7815207311252761" /><vType id="vType_car_5.472016509689636" accel="1.0" decel="5.0" sigma="0.0" length="4.5" maxSpeed="1.520004586024899" /><vType id="vType_car_3.2964322506080888" accel="1.0" decel="5.0" sigma="0.0" length="4.5" maxSpeed="0.9156756251689135" /><vType id="vType_car_5.342388429744504" accel="1.0" decel="5.0" sigma="0.0" length="4.5" maxSpeed="1.48399678604014" /><vType id="vType_car_15.575604968709161" accel="1.0" decel="5.0" sigma="0.0" length="4.5" maxSpeed="4.326556935752545" /><route id="route_north_to_east" edges="north_to_center center_to_east" /><route id="route_north_to_south" edges="north_to_center center_to_south" /><route id="route_north_to_west" edges="north_to_center center_to_west" /><route id="route_east_to_west" edges="east_to_center center_to_west" /><route id="route_east_to_south" edges="east_to_center center_to_south" /><route id="route_east_to_north" edges="east_to_center center_to_north" /><route id="route_south_to_west" edges="south_to_center center_to_west" /><route id="route_south_to_north" edges="south_to_center center_to_north" /><route id="route_south_to_east" edges="south_to_center center_to_east" /><route id="route_west_to_south" edges="west_to_center center_to_south" /><route id="route_west_to_north" edges="west_to_center center_to_north" /><route id="route_west_to_east" edges="west_to_center center_to_east" /><vehicle id="veh489" type="vType_car_16.978814219141096" route="route_south_to_north" depart="0.03" /><vehicle id="veh536" type="vType_car_12.060485327577808" route="route_east_to_north" depart="0.03" /><vehicle id="veh516" type="vType_car_18.39892898204484" route="route_east_to_south" depart="0.03" /><vehicle id="veh538" type="vType_car_28.72280828893289" route="route_north_to_west" depart="0.93" /><vehicle id="veh542" type="vType_car_6.176290560916464" route="route_east_to_north" depart="2.94" /><vehicle id="veh545" type="vType_car_38.03134632221847" route="route_north_to_south" depart="3.64" /><vehicle id="veh546" type="vType_car_29.76100391024335" route="route_north_to_south" depart="3.64" /><vehicle id="veh548" type="vType_car_30.797051108985" route="route_north_to_south" depart="6.47" /><vehicle id="veh550" type="vType_car_16.611638776289592" route="route_south_to_north" depart="7.67" /><vehicle id="veh551" type="vType_car_6.99031097675824" route="route_east_to_north" depart="8.14" /><vehicle id="veh552" type="vType_car_19.888481174425284" route="route_north_to_west" depart="8.97" /><vehicle id="veh553" type="vType_car_27.089870528746097" route="route_south_to_north" depart="9.21" /><vehicle id="veh555" type="vType_car_17.993468420125705" route="route_north_to_west" depart="10.67" /><vehicle id="veh559" type="vType_car_18.63187537217089" route="route_south_to_north" depart="11.51" /><vehicle id="veh563" type="vType_bus_22.315796082615687" route="route_south_to_north" depart="13.27" /><vehicle id="veh568" type="vType_car_25.68133067439771" route="route_south_to_north" depart="15.58" /><vehicle id="veh569" type="vType_car_6.969643055025922" route="route_east_to_north" depart="15.58" /><vehicle id="veh573" type="vType_car_15.46375257055795" route="route_west_to_north" depart="17.84" /><vehicle id="veh579" type="vType_truck_22.3412446007918" route="route_south_to_north" depart="18.34" /><vehicle id="veh580" type="vType_car_19.02424391169934" route="route_south_to_north" depart="18.54" /><vehicle id="veh578" type="vType_car_25.593975017233646" route="route_west_to_east" depart="18.68" /><vehicle id="veh583" type="vType_car_27.197413482006624" route="route_south_to_north" depart="19.95" /><vehicle id="veh584" type="vType_car_18.2852916015688" route="route_south_to_north" depart="21.61" /><vehicle id="veh588" type="vType_car_19.508976971527133" route="route_south_to_north" depart="23.81" /><vehicle id="veh591" type="vType_car_22.18196182165855" route="route_south_to_north" depart="25.25" /><vehicle id="veh607" type="vType_car_28.73463312948289" route="route_east_to_west" depart="40.26" /><vehicle id="veh608" type="vType_car_37.14379624080713" route="route_east_to_west" depart="40.29" /><vehicle id="veh609" type="vType_car_10.38841805653463" route="route_east_to_north" depart="41.26" /><vehicle id="veh611" type="vType_car_36.641969619623225" route="route_east_to_west" depart="45.90" /><vehicle id="veh613" type="vType_car_17.91682920299235" route="route_east_to_north" depart="47.33" /><vehicle id="veh616" type="vType_car_10.837960337675359" route="route_east_to_north" depart="47.63" /><vehicle id="veh618" type="vType_car_33.08760168501045" route="route_east_to_west" depart="48.23" /><vehicle id="veh624" type="vType_car_35.44981169331932" route="route_east_to_west" depart="50.03" /><vehicle id="veh627" type="vType_car_9.77216670921272" route="route_north_to_west" depart="50.70" /><vehicle id="veh629" type="vType_car_12.513236361349335" route="route_east_to_north" depart="51.03" /><vehicle id="veh639" type="vType_car_11.290983433884058" route="route_east_to_north" depart="54.57" /></routes>