<?xml version='1.0' encoding='utf-8'?>
<routes><vType id="vType_car_10.556881563339008" accel="1.0" decel="5.0" sigma="0.0" length="4.5" maxSpeed="2.9324671009275023" /><vType id="vType_car_13.087834004714558" accel="1.0" decel="5.0" sigma="0.0" length="4.5" maxSpeed="3.635509445754044" /><vType id="vType_car_10.464745541290188" accel="1.0" decel="5.0" sigma="0.0" length="4.5" maxSpeed="2.906873761469497" /><vType id="vType_car_23.89618578436622" accel="1.0" decel="5.0" sigma="0.0" length="4.5" maxSpeed="6.637829384546173" /><vType id="vType_car_29.268901246733016" accel="1.0" decel="5.0" sigma="0.0" length="4.5" maxSpeed="8.130250346314726" /><vType id="vType_car_11.565751173520463" accel="1.0" decel="5.0" sigma="0.0" length="4.5" maxSpeed="3.2127086593112395" /><vType id="vType_car_18.510491286026983" accel="1.0" decel="5.0" sigma="0.0" length="4.5" maxSpeed="5.141803135007495" /><vType id="vType_car_3.801229653679752" accel="1.0" decel="5.0" sigma="0.0" length="4.5" maxSpeed="1.0558971260221532" /><vType id="vType_car_99.51327756802691" accel="1.0" decel="5.0" sigma="0.0" length="4.5" maxSpeed="27.642577102229694" /><vType id="vType_car_18.717694427239238" accel="1.0" decel="5.0" sigma="0.0" length="4.5" maxSpeed="5.199359563122011" /><vType id="vType_car_17.378555017830664" accel="1.0" decel="5.0" sigma="0.0" length="4.5" maxSpeed="4.827376393841851" /><vType id="vType_car_20.517074602680818" accel="1.0" decel="5.0" sigma="0.0" length="4.5" maxSpeed="5.69918738963356" /><vType id="vType_car_3.8972135480627346" accel="1.0" decel="5.0" sigma="0.0" length="4.5" maxSpeed="1.0825593189063152" /><vType id="vType_car_19.083263859287307" accel="1.0" decel="5.0" sigma="0.0" length="4.5" maxSpeed="5.300906627579807" /><vType id="vType_car_29.17296369024909" accel="1.0" decel="5.0" sigma="0.0" length="4.5" maxSpeed="8.103601025069192" /><vType id="vType_car_20.089372497674045" accel="1.0" decel="5.0" sigma="0.0" length="4.5" maxSpeed="5.580381249353901" /><vType id="vType_car_27.305344107955158" accel="1.0" decel="5.0" sigma="0.0" length="4.5" maxSpeed="7.584817807765321" /><vType id="vType_car_4.560119055369844" accel="1.0" decel="5.0" sigma="0.0" length="4.5" maxSpeed="1.2666997376027345" /><vType id="vType_car_12.904016319417858" accel="1.0" decel="5.0" sigma="0.0" length="4.5" maxSpeed="3.5844489776160717" /><vType id="vType_car_20.212494461557657" accel="1.0" decel="5.0" sigma="0.0" length="4.5" maxSpeed="5.614581794877127" /><vType id="vType_car_12.008084738313775" accel="1.0" decel="5.0" sigma="0.0" length="4.5" maxSpeed="3.3355790939760483" /><vType id="vType_car_14.419014107663775" accel="1.0" decel="5.0" sigma="0.0" length="4.5" maxSpeed="4.005281696573271" /><vType id="vType_car_29.65496943964797" accel="1.0" decel="5.0" sigma="0.0" length="4.5" maxSpeed="8.237491511013324" /><vType id="vType_car_4.716224029059817" accel="1.0" decel="5.0" sigma="0.0" length="4.5" maxSpeed="1.3100622302943936" /><vType id="vType_car_20.2633931277347" accel="1.0" decel="5.0" sigma="0.0" length="4.5" maxSpeed="5.628720313259639" /><vType id="vType_car_24.681519811891306" accel="1.0" decel="5.0" sigma="0.0" length="4.5" maxSpeed="6.855977725525363" /><vType id="vType_car_20.205961677843224" accel="1.0" decel="5.0" sigma="0.0" length="4.5" maxSpeed="5.612767132734229" /><vType id="vType_car_19.044958682108668" accel="1.0" decel="5.0" sigma="0.0" length="4.5" maxSpeed="5.290266300585741" /><vType id="vType_car_16.314915664375626" accel="1.0" decel="5.0" sigma="0.0" length="4.5" maxSpeed="4.5319210178821185" /><vType id="vType_car_28.230394841363026" accel="1.0" decel="5.0" sigma="0.0" length="4.5" maxSpeed="7.841776344823063" /><vType id="vType_car_16.214641083238668" accel="1.0" decel="5.0" sigma="0.0" length="4.5" maxSpeed="4.504066967566296" /><vType id="vType_car_3.777726317540352" accel="1.0" decel="5.0" sigma="0.0" length="4.5" maxSpeed="1.0493684215389867" /><vType id="vType_car_54.43992662085228" accel="1.0" decel="5.0" sigma="0.0" length="4.5" maxSpeed="15.122201839125633" /><vType id="vType_car_23.228156182040358" accel="1.0" decel="5.0" sigma="0.0" length="4.5" maxSpeed="6.452265606122322" /><vType id="vType_car_18.602328670917956" accel="1.0" decel="5.0" sigma="0.0" length="4.5" maxSpeed="5.167313519699432" /><vType id="vType_car_3.6532125692314956" accel="1.0" decel="5.0" sigma="0.0" length="4.5" maxSpeed="1.014781269230971" /><vType id="vType_car_18.35103861180023" accel="1.0" decel="5.0" sigma="0.0" length="4.5" maxSpeed="5.097510725500064" /><vType id="vType_car_27.09965241227177" accel="1.0" decel="5.0" sigma="0.0" length="4.5" maxSpeed="7.527681225631047" /><vType id="vType_car_31.668999963527313" accel="1.0" decel="5.0" sigma="0.0" length="4.5" maxSpeed="8.796944434313142" /><vType id="vType_car_33.249460922851604" accel="1.0" decel="5.0" sigma="0.0" length="4.5" maxSpeed="9.23596136745878" /><vType id="vType_car_8.464025302246467" accel="1.0" decel="5.0" sigma="0.0" length="4.5" maxSpeed="2.3511181395129075" /><vType id="vType_car_15.412169841529597" accel="1.0" decel="5.0" sigma="0.0" length="4.5" maxSpeed="4.281158289313777" /><vType id="vType_car_13.843743762412235" accel="1.0" decel="5.0" sigma="0.0" length="4.5" maxSpeed="3.8454843784478427" /><vType id="vType_car_10.88363427954032" accel="1.0" decel="5.0" sigma="0.0" length="4.5" maxSpeed="3.023231744316756" /><vType id="vType_car_3.1253795130628985" accel="1.0" decel="5.0" sigma="0.0" length="4.5" maxSpeed="0.8681609758508051" /><vType id="vType_car_8.765938066974464" accel="1.0" decel="5.0" sigma="0.0" length="4.5" maxSpeed="2.4349827963817954" /><vType id="vType_car_31.545692762657907" accel="1.0" decel="5.0" sigma="0.0" length="4.5" maxSpeed="8.76269243407164" /><vType id="vType_car_19.446035817594773" accel="1.0" decel="5.0" sigma="0.0" length="4.5" maxSpeed="5.401676615998547" /><vType id="vType_car_3.5903658683281168" accel="1.0" decel="5.0" sigma="0.0" length="4.5" maxSpeed="0.9973238523133657" /><vType id="vType_car_17.470617530690586" accel="1.0" decel="5.0" sigma="0.0" length="4.5" maxSpeed="4.8529493140807185" /><vType id="vType_car_16.459631646538863" accel="1.0" decel="5.0" sigma="0.0" length="4.5" maxSpeed="4.572119901816351" /><vType id="vType_car_18.950918144243953" accel="1.0" decel="5.0" sigma="0.0" length="4.5" maxSpeed="5.264143928956654" /><vType id="vType_car_5.412010711064428" accel="1.0" decel="5.0" sigma="0.0" length="4.5" maxSpeed="1.5033363086290077" /><vType id="vType_car_8.122323570839807" accel="1.0" decel="5.0" sigma="0.0" length="4.5" maxSpeed="2.2562009918999464" /><vType id="vType_car_4.742051655298846" accel="1.0" decel="5.0" sigma="0.0" length="4.5" maxSpeed="1.3172365709163463" /><vType id="vType_car_41.953350982052136" accel="1.0" decel="5.0" sigma="0.0" length="4.5" maxSpeed="11.653708606125592" /><vType id="vType_car_4.241131797905291" accel="1.0" decel="5.0" sigma="0.0" length="4.5" maxSpeed="1.1780921660848032" /><vType id="vType_car_32.43036364224934" accel="1.0" decel="5.0" sigma="0.0" length="4.5" maxSpeed="9.008434345069261" /><vType id="vType_car_32.183229080333554" accel="1.0" decel="5.0" sigma="0.0" length="4.5" maxSpeed="8.939785855648209" /><vType id="vType_car_52.73800507311469" accel="1.0" decel="5.0" sigma="0.0" length="4.5" maxSpeed="14.64944585364297" /><vType id="vType_car_46.24584451210096" accel="1.0" decel="5.0" sigma="0.0" length="4.5" maxSpeed="12.846067920028045" /><vType id="vType_car_4.000330975590324" accel="1.0" decel="5.0" sigma="0.0" length="4.5" maxSpeed="1.11120304877509" /><vType id="vType_car_36.214927958220564" accel="1.0" decel="5.0" sigma="0.0" length="4.5" maxSpeed="10.059702210616823" /><vType id="vType_car_29.43072126584102" accel="1.0" decel="5.0" sigma="0.0" length="4.5" maxSpeed="8.175200351622506" /><vType id="vType_car_54.86805704962621" accel="1.0" decel="5.0" sigma="0.0" length="4.5" maxSpeed="15.241126958229502" /><vType id="vType_car_3.9845109496316513" accel="1.0" decel="5.0" sigma="0.0" length="4.5" maxSpeed="1.106808597119903" /><vType id="vType_car_52.52725406795534" accel="1.0" decel="5.0" sigma="0.0" length="4.5" maxSpeed="14.590903907765371" /><vType id="vType_car_32.24749189862325" accel="1.0" decel="5.0" sigma="0.0" length="4.5" maxSpeed="8.95763663850646" /><vType id="vType_car_52.44277179795309" accel="1.0" decel="5.0" sigma="0.0" length="4.5" maxSpeed="14.567436610542526" /><vType id="vType_car_34.138511915419265" accel="1.0" decel="5.0" sigma="0.0" length="4.5" maxSpeed="9.482919976505352" /><vType id="vType_car_12.34572533896736" accel="1.0" decel="5.0" sigma="0.0" length="4.5" maxSpeed="3.429368149713156" /><vType id="vType_car_17.26179177764976" accel="1.0" decel="5.0" sigma="0.0" length="4.5" maxSpeed="4.794942160458266" /><vType id="vType_car_25.107008957613996" accel="1.0" decel="5.0" sigma="0.0" length="4.5" maxSpeed="6.974169154892777" /><vType id="vType_car_15.509790253665718" accel="1.0" decel="5.0" sigma="0.0" length="4.5" maxSpeed="4.3082750704627" /><vType id="vType_car_4.086539725578278" accel="1.0" decel="5.0" sigma="0.0" length="4.5" maxSpeed="1.1351499237717437" /><vType id="vType_car_22.97102614318189" accel="1.0" decel="5.0" sigma="0.0" length="4.5" maxSpeed="6.380840595328303" /><vType id="vType_car_17.379400874067397" accel="1.0" decel="5.0" sigma="0.0" length="4.5" maxSpeed="4.82761135390761" /><vType id="vType_car_22.234232573007905" accel="1.0" decel="5.0" sigma="0.0" length="4.5" maxSpeed="6.176175714724418" /><vType id="vType_car_14.992657965341664" accel="1.0" decel="5.0" sigma="0.0" length="4.5" maxSpeed="4.164627212594906" /><vType id="vType_car_9.542596965121085" accel="1.0" decel="5.0" sigma="0.0" length="4.5" maxSpeed="2.6507213792003013" /><vType id="vType_car_25.409423638780222" accel="1.0" decel="5.0" sigma="0.0" length="4.5" maxSpeed="7.0581732329945055" /><vType id="vType_car_3.698530453703692" accel="1.0" decel="5.0" sigma="0.0" length="4.5" maxSpeed="1.0273695704732477" /><vType id="vType_car_15.461757241759729" accel="1.0" decel="5.0" sigma="0.0" length="4.5" maxSpeed="4.29493256715548" /><vType id="vType_car_25.92956829559128" accel="1.0" decel="5.0" sigma="0.0" length="4.5" maxSpeed="7.202657859886466" /><vType id="vType_car_16.554316863909687" accel="1.0" decel="5.0" sigma="0.0" length="4.5" maxSpeed="4.598421351086024" /><vType id="vType_car_22.848170316914878" accel="1.0" decel="5.0" sigma="0.0" length="4.5" maxSpeed="6.3467139769208" /><vType id="vType_car_14.601216425778645" accel="1.0" decel="5.0" sigma="0.0" length="4.5" maxSpeed="4.055893451605179" /><vType id="vType_car_17.638687381815174" accel="1.0" decel="5.0" sigma="0.0" length="4.5" maxSpeed="4.899635383837548" /><vType id="vType_car_29.893003964444087" accel="1.0" decel="5.0" sigma="0.0" length="4.5" maxSpeed="8.30361221234558" /><vType id="vType_car_19.26894099686872" accel="1.0" decel="5.0" sigma="0.0" length="4.5" maxSpeed="5.352483610241311" /><vType id="vType_car_29.002745984631364" accel="1.0" decel="5.0" sigma="0.0" length="4.5" maxSpeed="8.056318329064268" /><vType id="vType_car_16.37005532079065" accel="1.0" decel="5.0" sigma="0.0" length="4.5" maxSpeed="4.547237589108514" /><vType id="vType_car_19.998616453106866" accel="1.0" decel="5.0" sigma="0.0" length="4.5" maxSpeed="5.55517123697413" /><vType id="vType_car_17.434824406107968" accel="1.0" decel="5.0" sigma="0.0" length="4.5" maxSpeed="4.843006779474435" /><vType id="vType_car_3.8793990888065677" accel="1.0" decel="5.0" sigma="0.0" length="4.5" maxSpeed="1.0776108580018244" /><vType id="vType_car_28.080209791635433" accel="1.0" decel="5.0" sigma="0.0" length="4.5" maxSpeed="7.800058275454287" /><vType id="vType_car_13.539236960603915" accel="1.0" decel="5.0" sigma="0.0" length="4.5" maxSpeed="3.7608991557233096" /><vType id="vType_car_29.443015751638946" accel="1.0" decel="5.0" sigma="0.0" length="4.5" maxSpeed="8.178615486566374" /><vType id="vType_car_16.648044061859505" accel="1.0" decel="5.0" sigma="0.0" length="4.5" maxSpeed="4.624456683849862" /><vType id="vType_car_14.909218031669454" accel="1.0" decel="5.0" sigma="0.0" length="4.5" maxSpeed="4.141449453241515" /><vType id="vType_car_7.421345687892562" accel="1.0" decel="5.0" sigma="0.0" length="4.5" maxSpeed="2.0614849133034894" /><vType id="vType_car_15.575964631894514" accel="1.0" decel="5.0" sigma="0.0" length="4.5" maxSpeed="4.326656842192921" /><vType id="vType_car_14.356233188532816" accel="1.0" decel="5.0" sigma="0.0" length="4.5" maxSpeed="3.9878425523702266" /><vType id="vType_car_4.812841240746017" accel="1.0" decel="5.0" sigma="0.0" length="4.5" maxSpeed="1.3369003446516712" /><vType id="vType_car_7.083715188930991" accel="1.0" decel="5.0" sigma="0.0" length="4.5" maxSpeed="1.9676986635919418" /><vType id="vType_car_18.98529963850142" accel="1.0" decel="5.0" sigma="0.0" length="4.5" maxSpeed="5.273694344028172" /><vType id="vType_car_16.08371754664504" accel="1.0" decel="5.0" sigma="0.0" length="4.5" maxSpeed="4.467699318512511" /><vType id="vType_car_20.17875777686819" accel="1.0" decel="5.0" sigma="0.0" length="4.5" maxSpeed="5.605210493574496" /><vType id="vType_car_2.7792817909700656" accel="1.0" decel="5.0" sigma="0.0" length="4.5" maxSpeed="0.7720227197139071" /><vType id="vType_truck_8.43369258355462" accel="1.0" decel="5.0" sigma="0.0" length="8" maxSpeed="2.3426923843207277" /><vType id="vType_car_32.765348820993026" accel="1.0" decel="5.0" sigma="0.0" length="4.5" maxSpeed="9.101485783609174" /><vType id="vType_car_26.87252699360778" accel="1.0" decel="5.0" sigma="0.0" length="4.5" maxSpeed="7.464590831557717" /><vType id="vType_car_15.252802123751234" accel="1.0" decel="5.0" sigma="0.0" length="4.5" maxSpeed="4.236889478819787" /><vType id="vType_car_2.6929767113073315" accel="1.0" decel="5.0" sigma="0.0" length="4.5" maxSpeed="0.7480490864742587" /><vType id="vType_car_3.333207651301944" accel="1.0" decel="5.0" sigma="0.0" length="4.5" maxSpeed="0.92589101425054" /><vType id="vType_car_19.849150565409733" accel="1.0" decel="5.0" sigma="0.0" length="4.5" maxSpeed="5.513652934836037" /><vType id="vType_car_14.03541611254182" accel="1.0" decel="5.0" sigma="0.0" length="4.5" maxSpeed="3.8987266979282835" /><vType id="vType_car_19.94255366837398" accel="1.0" decel="5.0" sigma="0.0" length="4.5" maxSpeed="5.539598241214994" /><vType id="vType_car_14.058131182254" accel="1.0" decel="5.0" sigma="0.0" length="4.5" maxSpeed="3.905036439515" /><vType id="vType_car_27.180347397087175" accel="1.0" decel="5.0" sigma="0.0" length="4.5" maxSpeed="7.550096499190881" /><vType id="vType_car_4.24120106556817" accel="1.0" decel="5.0" sigma="0.0" length="4.5" maxSpeed="1.1781114071022694" /><vType id="vType_car_17.14435284272787" accel="1.0" decel="5.0" sigma="0.0" length="4.5" maxSpeed="4.762320234091074" /><vType id="vType_car_18.06164407472221" accel="1.0" decel="5.0" sigma="0.0" length="4.5" maxSpeed="5.017123354089502" /><vType id="vType_car_14.350097091651742" accel="1.0" decel="5.0" sigma="0.0" length="4.5" maxSpeed="3.9861380810143725" /><vType id="vType_car_16.351965762754173" accel="1.0" decel="5.0" sigma="0.0" length="4.5" maxSpeed="4.542212711876159" /><vType id="vType_car_28.360886314969285" accel="1.0" decel="5.0" sigma="0.0" length="4.5" maxSpeed="7.878023976380357" /><vType id="vType_car_5.2431622498943" accel="1.0" decel="5.0" sigma="0.0" length="4.5" maxSpeed="1.456433958303972" /><vType id="vType_truck_19.860140045602417" accel="1.0" decel="5.0" sigma="0.0" length="8" maxSpeed="5.516705568222894" /><vType id="vType_car_17.746000545615708" accel="1.0" decel="5.0" sigma="0.0" length="4.5" maxSpeed="4.929444596004363" /><vType id="vType_car_16.274420831772876" accel="1.0" decel="5.0" sigma="0.0" length="4.5" maxSpeed="4.520672453270243" /><vType id="vType_car_22.25222342209037" accel="1.0" decel="5.0" sigma="0.0" length="4.5" maxSpeed="6.181173172802881" /><vType id="vType_car_3.14810526461696" accel="1.0" decel="5.0" sigma="0.0" length="4.5" maxSpeed="0.8744736846158222" /><vType id="vType_car_21.45614319793071" accel="1.0" decel="5.0" sigma="0.0" length="4.5" maxSpeed="5.960039777202975" /><vType id="vType_car_27.33500799743261" accel="1.0" decel="5.0" sigma="0.0" length="4.5" maxSpeed="7.5930577770646135" /><vType id="vType_car_20.942854658097943" accel="1.0" decel="5.0" sigma="0.0" length="4.5" maxSpeed="5.817459627249429" /><vType id="vType_car_10.302042576337342" accel="1.0" decel="5.0" sigma="0.0" length="4.5" maxSpeed="2.8616784934270396" /><vType id="vType_car_28.291854542572953" accel="1.0" decel="5.0" sigma="0.0" length="4.5" maxSpeed="7.858848484048043" /><vType id="vType_car_9.464456033654011" accel="1.0" decel="5.0" sigma="0.0" length="4.5" maxSpeed="2.629015564903892" /><vType id="vType_car_29.02623614803331" accel="1.0" decel="5.0" sigma="0.0" length="4.5" maxSpeed="8.062843374453697" /><vType id="vType_car_1.2592421058467842" accel="1.0" decel="5.0" sigma="0.0" length="4.5" maxSpeed="0.3497894738463289" /><vType id="vType_car_28.61531873369659" accel="1.0" decel="5.0" sigma="0.0" length="4.5" maxSpeed="7.948699648249052" /><vType id="vType_car_3.2675424701358304" accel="1.0" decel="5.0" sigma="0.0" length="4.5" maxSpeed="0.9076506861488418" /><vType id="vType_car_27.69206911176441" accel="1.0" decel="5.0" sigma="0.0" length="4.5" maxSpeed="7.692241419934558" /><vType id="vType_car_27.85339226175551" accel="1.0" decel="5.0" sigma="0.0" length="4.5" maxSpeed="7.737053406043197" /><vType id="vType_truck_14.445402148148359" accel="1.0" decel="5.0" sigma="0.0" length="8" maxSpeed="4.012611707818989" /><vType id="vType_car_29.52292904895337" accel="1.0" decel="5.0" sigma="0.0" length="4.5" maxSpeed="8.20081362470927" /><vType id="vType_car_16.685347519300155" accel="1.0" decel="5.0" sigma="0.0" length="4.5" maxSpeed="4.634818755361154" /><vType id="vType_car_21.650849351257502" accel="1.0" decel="5.0" sigma="0.0" length="4.5" maxSpeed="6.01412481979375" /><vType id="vType_car_18.336330736548835" accel="1.0" decel="5.0" sigma="0.0" length="4.5" maxSpeed="5.093425204596898" /><vType id="vType_car_19.09132959151493" accel="1.0" decel="5.0" sigma="0.0" length="4.5" maxSpeed="5.303147108754147" /><vType id="vType_car_27.378558912451194" accel="1.0" decel="5.0" sigma="0.0" length="4.5" maxSpeed="7.605155253458665" /><vType id="vType_car_15.96635658240853" accel="1.0" decel="5.0" sigma="0.0" length="4.5" maxSpeed="4.435099050669036" /><vType id="vType_car_2.8542821065860444" accel="1.0" decel="5.0" sigma="0.0" length="4.5" maxSpeed="0.7928561407183456" /><vType id="vType_car_26.12720892573286" accel="1.0" decel="5.0" sigma="0.0" length="4.5" maxSpeed="7.257558034925794" /><vType id="vType_car_15.523322185449704" accel="1.0" decel="5.0" sigma="0.0" length="4.5" maxSpeed="4.312033940402696" /><vType id="vType_car_38.90298298309454" accel="1.0" decel="5.0" sigma="0.0" length="4.5" maxSpeed="10.806384161970705" /><vType id="vType_car_19.054120202311488" accel="1.0" decel="5.0" sigma="0.0" length="4.5" maxSpeed="5.292811167308747" /><vType id="vType_car_4.899150176734198" accel="1.0" decel="5.0" sigma="0.0" length="4.5" maxSpeed="1.3608750490928327" /><vType id="vType_car_11.754654313144801" accel="1.0" decel="5.0" sigma="0.0" length="4.5" maxSpeed="3.2651817536513335" /><vType id="vType_car_20.293335364684978" accel="1.0" decel="5.0" sigma="0.0" length="4.5" maxSpeed="5.637037601301382" /><vType id="vType_car_26.07061700736858" accel="1.0" decel="5.0" sigma="0.0" length="4.5" maxSpeed="7.241838057602383" /><vType id="vType_car_8.385811623078675" accel="1.0" decel="5.0" sigma="0.0" length="4.5" maxSpeed="2.3293921175218544" /><vType id="vType_car_16.070755499554217" accel="1.0" decel="5.0" sigma="0.0" length="4.5" maxSpeed="4.464098749876171" /><vType id="vType_car_14.555041132109713" accel="1.0" decel="5.0" sigma="0.0" length="4.5" maxSpeed="4.043066981141587" /><vType id="vType_car_4.558224956056745" accel="1.0" decel="5.0" sigma="0.0" length="4.5" maxSpeed="1.2661735989046514" /><vType id="vType_car_7.963765394213314" accel="1.0" decel="5.0" sigma="0.0" length="4.5" maxSpeed="2.2121570539481428" /><vType id="vType_car_7.8856281102299155" accel="1.0" decel="5.0" sigma="0.0" length="4.5" maxSpeed="2.1904522528416432" /><vType id="vType_car_4.876194960375589" accel="1.0" decel="5.0" sigma="0.0" length="4.5" maxSpeed="1.3544986001043302" /><vType id="vType_car_22.550813886143747" accel="1.0" decel="5.0" sigma="0.0" length="4.5" maxSpeed="6.264114968373263" /><vType id="vType_car_29.158216174233743" accel="1.0" decel="5.0" sigma="0.0" length="4.5" maxSpeed="8.099504492842707" /><vType id="vType_car_15.57891384222895" accel="1.0" decel="5.0" sigma="0.0" length="4.5" maxSpeed="4.3274760672858195" /><vType id="vType_car_7.452729238512592" accel="1.0" decel="5.0" sigma="0.0" length="4.5" maxSpeed="2.0702025662534975" /><vType id="vType_car_30.68642134933863" accel="1.0" decel="5.0" sigma="0.0" length="4.5" maxSpeed="8.52400593037184" /><vType id="vType_car_15.015179240585761" accel="1.0" decel="5.0" sigma="0.0" length="4.5" maxSpeed="4.170883122384933" /><vType id="vType_car_9.866143528586383" accel="1.0" decel="5.0" sigma="0.0" length="4.5" maxSpeed="2.7405954246073283" /><vType id="vType_car_4.204485992720075" accel="1.0" decel="5.0" sigma="0.0" length="4.5" maxSpeed="1.1679127757555763" /><vType id="vType_car_2.5184842116935684" accel="1.0" decel="5.0" sigma="0.0" length="4.5" maxSpeed="0.6995789476926578" /><vType id="vType_car_28.401647355358545" accel="1.0" decel="5.0" sigma="0.0" length="4.5" maxSpeed="7.889346487599596" /><vType id="vType_car_3.608086994339862" accel="1.0" decel="5.0" sigma="0.0" length="4.5" maxSpeed="1.0022463873166283" /><vType id="vType_car_35.10568463917151" accel="1.0" decel="5.0" sigma="0.0" length="4.5" maxSpeed="9.751579066436529" /><vType id="vType_car_45.603511628847734" accel="1.0" decel="5.0" sigma="0.0" length="4.5" maxSpeed="12.66764211912437" /><vType id="vType_car_7.180341900817836" accel="1.0" decel="5.0" sigma="0.0" length="4.5" maxSpeed="1.9945394168938433" /><vType id="vType_car_48.78631000742161" accel="1.0" decel="5.0" sigma="0.0" length="4.5" maxSpeed="13.551752779839337" /><vType id="vType_car_39.99095234533533" accel="1.0" decel="5.0" sigma="0.0" length="4.5" maxSpeed="11.108597873704259" /><vType id="vType_car_33.71991523125981" accel="1.0" decel="5.0" sigma="0.0" length="4.5" maxSpeed="9.366643119794391" /><vType id="vType_car_35.720553039075476" accel="1.0" decel="5.0" sigma="0.0" length="4.5" maxSpeed="9.922375844187632" /><vType id="vType_car_27.745027742585147" accel="1.0" decel="5.0" sigma="0.0" length="4.5" maxSpeed="7.706952150718096" /><vType id="vType_car_21.392321523832457" accel="1.0" decel="5.0" sigma="0.0" length="4.5" maxSpeed="5.942311534397905" /><vType id="vType_car_28.61254992846918" accel="1.0" decel="5.0" sigma="0.0" length="4.5" maxSpeed="7.947930535685883" /><vType id="vType_car_9.6308972853385" accel="1.0" decel="5.0" sigma="0.0" length="4.5" maxSpeed="2.675249245927361" /><vType id="vType_car_4.230794287790601" accel="1.0" decel="5.0" sigma="0.0" length="4.5" maxSpeed="1.175220635497389" /><vType id="vType_car_16.12487380520695" accel="1.0" decel="5.0" sigma="0.0" length="4.5" maxSpeed="4.479131612557485" /><vType id="vType_car_11.31280586632693" accel="1.0" decel="5.0" sigma="0.0" length="4.5" maxSpeed="3.1424460739797024" /><vType id="vType_car_9.244455683942068" accel="1.0" decel="5.0" sigma="0.0" length="4.5" maxSpeed="2.5679043566505744" /><vType id="vType_car_14.96628969569028" accel="1.0" decel="5.0" sigma="0.0" length="4.5" maxSpeed="4.1573026932473" /><vType id="vType_car_22.959198833986886" accel="1.0" decel="5.0" sigma="0.0" length="4.5" maxSpeed="6.377555231663024" /><vType id="vType_car_11.909104549803747" accel="1.0" decel="5.0" sigma="0.0" length="4.5" maxSpeed="3.3080845971677073" /><vType id="vType_car_16.182613581757778" accel="1.0" decel="5.0" sigma="0.0" length="4.5" maxSpeed="4.49517043937716" /><vType id="vType_car_4.118427043799318" accel="1.0" decel="5.0" sigma="0.0" length="4.5" maxSpeed="1.144007512166477" /><vType id="vType_car_17.930142561338187" accel="1.0" decel="5.0" sigma="0.0" length="4.5" maxSpeed="4.980595155927274" /><vType id="vType_car_26.442467381634327" accel="1.0" decel="5.0" sigma="0.0" length="4.5" maxSpeed="7.345129828231757" /><vType id="vType_car_10.927572486279438" accel="1.0" decel="5.0" sigma="0.0" length="4.5" maxSpeed="3.035436801744288" /><vType id="vType_car_17.053904466994066" accel="1.0" decel="5.0" sigma="0.0" length="4.5" maxSpeed="4.737195685276129" /><vType id="vType_car_25.68403170681575" accel="1.0" decel="5.0" sigma="0.0" length="4.5" maxSpeed="7.134453251893264" /><vType id="vType_car_14.309885383143865" accel="1.0" decel="5.0" sigma="0.0" length="4.5" maxSpeed="3.974968161984407" /><vType id="vType_car_20.35823935654068" accel="1.0" decel="5.0" sigma="0.0" length="4.5" maxSpeed="5.655066487927966" /><vType id="vType_car_16.685832636645173" accel="1.0" decel="5.0" sigma="0.0" length="4.5" maxSpeed="4.634953510179215" /><vType id="vType_car_9.26845844575215" accel="1.0" decel="5.0" sigma="0.0" length="4.5" maxSpeed="2.5745717904867083" /><vType id="vType_car_9.936948620614956" accel="1.0" decel="5.0" sigma="0.0" length="4.5" maxSpeed="2.7602635057263765" /><vType id="vType_car_5.925016852299419" accel="1.0" decel="5.0" sigma="0.0" length="4.5" maxSpeed="1.6458380145276164" /><vType id="vType_car_5.049114237257387" accel="1.0" decel="5.0" sigma="0.0" length="4.5" maxSpeed="1.4025317325714965" /><vType id="vType_car_4.763300694134059" accel="1.0" decel="5.0" sigma="0.0" length="4.5" maxSpeed="1.3231390817039053" /><vType id="vType_car_4.2033758782453985" accel="1.0" decel="5.0" sigma="0.0" length="4.5" maxSpeed="1.1676044106237218" /><route id="route_north_to_east" edges="north_to_center center_to_east" /><route id="route_north_to_south" edges="north_to_center center_to_south" /><route id="route_north_to_west" edges="north_to_center center_to_west" /><route id="route_east_to_west" edges="east_to_center center_to_west" /><route id="route_east_to_south" edges="east_to_center center_to_south" /><route id="route_east_to_north" edges="east_to_center center_to_north" /><route id="route_south_to_west" edges="south_to_center center_to_west" /><route id="route_south_to_north" edges="south_to_center center_to_north" /><route id="route_south_to_east" edges="south_to_center center_to_east" /><route id="route_west_to_south" edges="west_to_center center_to_south" /><route id="route_west_to_north" edges="west_to_center center_to_north" /><route id="route_west_to_east" edges="west_to_center center_to_east" /><vehicle id="veh3553" type="vType_car_10.556881563339008" route="route_west_to_north" depart="0.03" /><vehicle id="veh3570" type="vType_car_13.087834004714558" route="route_west_to_east" depart="0.03" /><vehicle id="veh3556" type="vType_car_10.464745541290188" route="route_west_to_north" depart="0.03" /><vehicle id="veh3618" type="vType_car_23.89618578436622" route="route_north_to_west" depart="0.03" /><vehicle id="veh3619" type="vType_car_18.510491286026983" route="route_north_to_east" depart="0.03" /><vehicle id="veh3622" type="vType_car_18.717694427239238" route="route_north_to_west" depart="1.40" /><vehicle id="veh3623" type="vType_car_17.378555017830664" route="route_north_to_east" depart="1.43" /><vehicle id="veh3630" type="vType_car_19.083263859287307" route="route_north_to_east" depart="4.07" /><vehicle id="veh3631" type="vType_car_29.17296369024909" route="route_north_to_south" depart="4.57" /><vehicle id="veh3632" type="vType_car_20.089372497674045" route="route_north_to_east" depart="4.67" /><vehicle id="veh3636" type="vType_car_27.305344107955158" route="route_north_to_south" depart="6.07" /><vehicle id="veh3638" type="vType_car_12.904016319417858" route="route_north_to_east" depart="6.90" /><vehicle id="veh3639" type="vType_car_20.212494461557657" route="route_north_to_south" depart="8.67" /><vehicle id="veh3641" type="vType_car_12.008084738313775" route="route_north_to_east" depart="9.81" /><vehicle id="veh3644" type="vType_car_14.419014107663775" route="route_south_to_north" depart="11.27" /><vehicle id="veh3646" type="vType_car_29.65496943964797" route="route_north_to_south" depart="11.57" /><vehicle id="veh3653" type="vType_car_20.2633931277347" route="route_north_to_west" depart="13.91" /><vehicle id="veh3656" type="vType_car_24.681519811891306" route="route_south_to_north" depart="14.34" /><vehicle id="veh3657" type="vType_car_20.205961677843224" route="route_north_to_west" depart="15.94" /><vehicle id="veh3660" type="vType_car_28.230394841363026" route="route_north_to_south" depart="18.14" /><vehicle id="veh3661" type="vType_car_16.214641083238668" route="route_south_to_north" depart="19.51" /><vehicle id="veh3666" type="vType_car_23.228156182040358" route="route_north_to_south" depart="21.05" /><vehicle id="veh3667" type="vType_car_18.602328670917956" route="route_south_to_north" depart="21.58" /><vehicle id="veh3673" type="vType_car_18.35103861180023" route="route_south_to_north" depart="23.38" /><vehicle id="veh3674" type="vType_car_27.09965241227177" route="route_north_to_south" depart="23.68" /><vehicle id="veh3675" type="vType_car_31.668999963527313" route="route_north_to_south" depart="24.91" /><vehicle id="veh3676" type="vType_car_33.249460922851604" route="route_south_to_north" depart="25.35" /><vehicle id="veh3677" type="vType_car_8.464025302246467" route="route_east_to_north" depart="25.38" /><vehicle id="veh3681" type="vType_car_15.412169841529597" route="route_north_to_east" depart="26.85" /><vehicle id="veh3682" type="vType_car_13.843743762412235" route="route_north_to_east" depart="28.95" /><vehicle id="veh3683" type="vType_car_10.88363427954032" route="route_north_to_south" depart="29.48" /><vehicle id="veh3687" type="vType_car_31.545692762657907" route="route_south_to_west" depart="34.15" /><vehicle id="veh3688" type="vType_car_19.446035817594773" route="route_nor