<?xml version='1.0' encoding='utf-8'?>
<routes><vType id="vType_car_36.73851028281359" accel="1.0" decel="5.0" sigma="0.0" length="4.5" maxSpeed="10.205141745225998" /><vType id="vType_car_18.584510935433972" accel="1.0" decel="5.0" sigma="0.0" length="4.5" maxSpeed="5.162364148731659" /><vType id="vType_car_11.360378699977439" accel="1.0" decel="5.0" sigma="0.0" length="4.5" maxSpeed="3.155660749993733" /><vType id="vType_car_5.703335368463628" accel="1.0" decel="5.0" sigma="0.0" length="4.5" maxSpeed="1.5842598245732298" /><vType id="vType_car_62.65174801806932" accel="1.0" decel="5.0" sigma="0.0" length="4.5" maxSpeed="17.403263338352588" /><route id="route_north_to_east" edges="north_to_center center_to_east" /><route id="route_north_to_south" edges="north_to_center center_to_south" /><route id="route_north_to_west" edges="north_to_center center_to_west" /><route id="route_east_to_west" edges="east_to_center center_to_west" /><route id="route_east_to_south" edges="east_to_center center_to_south" /><route id="route_east_to_north" edges="east_to_center center_to_north" /><route id="route_south_to_west" edges="south_to_center center_to_west" /><route id="route_south_to_north" edges="south_to_center center_to_north" /><route id="route_south_to_east" edges="south_to_center center_to_east" /><route id="route_west_to_south" edges="west_to_center center_to_south" /><route id="route_west_to_north" edges="west_to_center center_to_north" /><route id="route_west_to_east" edges="west_to_center center_to_east" /><vehicle id="veh199" type="vType_car_18.584510935433972" route="route_north_to_south" depart="1.39" /><vehicle id="veh202" type="vType_car_11.360378699977439" route="route_west_to_north" depart="21.73" /><vehicle id="veh204" type="vType_car_62.65174801806932" route="route_west_to_east" depart="54.94" /></routes>