<?xml version='1.0' encoding='utf-8'?>
<routes><vType id="vType_car_20.13078080817711" accel="1.0" decel="5.0" sigma="0.0" length="4.5" maxSpeed="5.591883557826975" /><vType id="vType_car_11.512431742258155" accel="1.0" decel="5.0" sigma="0.0" length="4.5" maxSpeed="3.197897706182821" /><vType id="vType_car_4.694864186635391" accel="1.0" decel="5.0" sigma="0.0" length="4.5" maxSpeed="1.3041289407320529" /><vType id="vType_car_22.548944966689877" accel="1.0" decel="5.0" sigma="0.0" length="4.5" maxSpeed="6.263595824080522" /><vType id="vType_car_10.12480590044403" accel="1.0" decel="5.0" sigma="0.0" length="4.5" maxSpeed="2.8124460834566753" /><vType id="vType_car_31.184005543528887" accel="1.0" decel="5.0" sigma="0.0" length="4.5" maxSpeed="8.662223762091358" /><vType id="vType_car_26.013836040049096" accel="1.0" decel="5.0" sigma="0.0" length="4.5" maxSpeed="7.226065566680305" /><vType id="vType_car_15.34421786655274" accel="1.0" decel="5.0" sigma="0.0" length="4.5" maxSpeed="4.262282740709094" /><vType id="vType_car_38.521837007746576" accel="1.0" decel="5.0" sigma="0.0" length="4.5" maxSpeed="10.700510279929604" /><vType id="vType_car_4.982769921756703" accel="1.0" decel="5.0" sigma="0.0" length="4.5" maxSpeed="1.3841027560435286" /><vType id="vType_car_34.84666002937312" accel="1.0" decel="5.0" sigma="0.0" length="4.5" maxSpeed="9.679627785936978" /><vType id="vType_car_16.472298009769894" accel="1.0" decel="5.0" sigma="0.0" length="4.5" maxSpeed="4.575638336047192" /><vType id="vType_car_37.22213184286486" accel="1.0" decel="5.0" sigma="0.0" length="4.5" maxSpeed="10.339481067462462" /><vType id="vType_car_18.42615701928918" accel="1.0" decel="5.0" sigma="0.0" length="4.5" maxSpeed="5.11837694980255" /><vType id="vType_car_11.470916469790623" accel="1.0" decel="5.0" sigma="0.0" length="4.5" maxSpeed="3.186365686052951" /><vType id="vType_car_19.40744129519909" accel="1.0" decel="5.0" sigma="0.0" length="4.5" maxSpeed="5.39095591533308" /><vType id="vType_car_11.436461238648821" accel="1.0" decel="5.0" sigma="0.0" length="4.5" maxSpeed="3.1767947885135612" /><vType id="vType_car_5.5997783039313545" accel="1.0" decel="5.0" sigma="0.0" length="4.5" maxSpeed="1.555493973314265" /><vType id="vType_car_4.615768706756994" accel="1.0" decel="5.0" sigma="0.0" length="4.5" maxSpeed="1.282157974099165" /><vType id="vType_car_7.721183773845994" accel="1.0" decel="5.0" sigma="0.0" length="4.5" maxSpeed="2.144773270512776" /><vType id="vType_car_8.143229215676259" accel="1.0" decel="5.0" sigma="0.0" length="4.5" maxSpeed="2.2620081154656275" /><vType id="vType_car_3.5379833179932967" accel="1.0" decel="5.0" sigma="0.0" length="4.5" maxSpeed="0.9827731438870269" /><vType id="vType_car_16.281263271818133" accel="1.0" decel="5.0" sigma="0.0" length="4.5" maxSpeed="4.522573131060592" /><vType id="vType_car_13.19263604013283" accel="1.0" decel="5.0" sigma="0.0" length="4.5" maxSpeed="3.6646211222591196" /><vType id="vType_car_23.446067101380464" accel="1.0" decel="5.0" sigma="0.0" length="4.5" maxSpeed="6.5127964170501285" /><vType id="vType_car_19.100244997621058" accel="1.0" decel="5.0" sigma="0.0" length="4.5" maxSpeed="5.305623610450294" /><vType id="vType_car_4.4602745503307615" accel="1.0" decel="5.0" sigma="0.0" length="4.5" maxSpeed="1.238965152869656" /><vType id="vType_car_3.318082825621226" accel="1.0" decel="5.0" sigma="0.0" length="4.5" maxSpeed="0.9216896737836738" /><vType id="vType_car_7.3993817381902325" accel="1.0" decel="5.0" sigma="0.0" length="4.5" maxSpeed="2.0553838161639533" /><vType id="vType_car_111.91146933807158" accel="1.0" decel="5.0" sigma="0.0" length="4.5" maxSpeed="31.08651926057544" /><vType id="vType_car_36.894011835729465" accel="1.0" decel="5.0" sigma="0.0" length="4.5" maxSpeed="10.248336621035962" /><vType id="vType_car_3.7791978460625764" accel="1.0" decel="5.0" sigma="0.0" length="4.5" maxSpeed="1.0497771794618267" /><route id="route_north_to_east" edges="north_to_center center_to_east" /><route id="route_north_to_south" edges="north_to_center center_to_south" /><route id="route_north_to_west" edges="north_to_center center_to_west" /><route id="route_east_to_west" edges="east_to_center center_to_west" /><route id="route_east_to_south" edges="east_to_center center_to_south" /><route id="route_east_to_north" edges="east_to_center center_to_north" /><route id="route_south_to_west" edges="south_to_center center_to_west" /><route id="route_south_to_north" edges="south_to_center center_to_north" /><route id="route_south_to_east" edges="south_to_center center_to_east" /><route id="route_west_to_south" edges="west_to_center center_to_south" /><route id="route_west_to_north" edges="west_to_center center_to_north" /><route id="route_west_to_east" edges="west_to_center center_to_east" /><vehicle id="veh261" type="vType_car_20.13078080817711" route="route_west_to_north" depart="0.03" /><vehicle id="veh280" type="vType_car_11.512431742258155" route="route_north_to_east" depart="0.03" /><vehicle id="veh281" type="vType_car_22.548944966689877" route="route_west_to_north" depart="0.03" /><vehicle id="veh286" type="vType_car_10.12480590044403" route="route_south_to_north" depart="0.93" /><vehicle id="veh289" type="vType_car_31.184005543528887" route="route_east_to_west" depart="8.30" /><vehicle id="veh291" type="vType_car_26.013836040049096" route="route_east_to_south" depart="8.40" /><vehicle id="veh293" type="vType_car_15.34421786655274" route="route_north_to_east" depart="27.17" /><vehicle id="veh298" type="vType_car_38.521837007746576" route="route_south_to_west" depart="28.91" /><vehicle id="veh300" type="vType_car_34.84666002937312" route="route_north_to_south" depart="30.21" /><vehicle id="veh301" type="vType_car_16.472298009769894" route="route_north_to_east" depart="31.17" /><vehicle id="veh302" type="vType_car_37.22213184286486" route="route_north_to_south" depart="32.11" /><vehicle id="veh304" type="vType_car_18.42615701928918" route="route_north_to_east" depart="33.04" /><vehicle id="veh305" type="vType_car_11.470916469790623" route="route_north_to_east" depart="34.41" /><vehicle id="veh306" type="vType_car_19.40744129519909" route="route_north_to_west" depart="35.51" /><vehicle id="veh307" type="vType_car_11.436461238648821" route="route_north_to_east" depart="38.21" /><vehicle id="veh312" type="vType_car_7.721183773845994" route="route_east_to_north" depart="41.58" /><vehicle id="veh313" type="vType_car_8.143229215676259" route="route_east_to_north" depart="41.91" /><vehicle id="veh316" type="vType_car_16.281263271818133" route="route_south_to_north" depart="45.78" /><vehicle id="veh319" type="vType_car_23.446067101380464" route="route_north_to_west" depart="47.04" /><vehicle id="veh328" type="vType_car_36.894011835729465" route="route_south_to_north" depart="58.38" /></routes>