<?xml version="1.0" encoding="utf-8"?>
<routes>
	<vType id="vType_car_19.77709169909583" accel="1.0" decel="5.0" sigma="0.0" length="4.5" maxSpeed="5.493636583082175" />
	<vType id="vType_car_24.03659419208535" accel="1.0" decel="5.0" sigma="0.0" length="4.5" maxSpeed="6.676831720023708" />
	<vType id="vType_car_7.33582090348938" accel="1.0" decel="5.0" sigma="0.0" length="4.5" maxSpeed="2.03772802874705" />
	<vType id="vType_car_22.62598679814697" accel="1.0" decel="5.0" sigma="0.0" length="4.5" maxSpeed="6.2849963328186025" />
	<vType id="vType_car_25.791538474809542" accel="1.0" decel="5.0" sigma="0.0" length="4.5" maxSpeed="7.16431624300265" />
	<vType id="vType_car_15.298966425698653" accel="1.0" decel="5.0" sigma="0.0" length="4.5" maxSpeed="4.249712896027404" />
	<vType id="vType_car_6.716877722758548" accel="1.0" decel="5.0" sigma="0.0" length="4.5" maxSpeed="1.86579936743293" />
	<vType id="vType_car_27.75493534894088" accel="1.0" decel="5.0" sigma="0.0" length="4.5" maxSpeed="7.709704263594689" />
	<vType id="vType_car_4.722048858006112" accel="1.0" decel="5.0" sigma="0.0" length="4.5" maxSpeed="1.3116802383350312" />
	<vType id="vType_car_26.36799840164993" accel="1.0" decel="5.0" sigma="0.0" length="4.5" maxSpeed="7.324444000458314" />
	<vType id="vType_car_36.53263248907233" accel="1.0" decel="5.0" sigma="0.0" length="4.5" maxSpeed="10.147953469186758" />
	<vType id="vType_car_4.29327361217861" accel="1.0" decel="5.0" sigma="0.0" length="4.5" maxSpeed="1.1925760033829473" />
	<vType id="vType_car_1.888819543202445" accel="1.0" decel="5.0" sigma="0.0" length="4.5" maxSpeed="0.5246720953340125" />
	<vType id="vType_car_5.646437498363372" accel="1.0" decel="5.0" sigma="0.0" length="4.5" maxSpeed="1.568454860656492" />
	<vType id="vType_car_4.299222200851427" accel="1.0" decel="5.0" sigma="0.0" length="4.5" maxSpeed="1.1942283891253964" />
	<vType id="vType_car_6.255991767098295" accel="1.0" decel="5.0" sigma="0.0" length="4.5" maxSpeed="1.7377754908606375" />
	<vType id="vType_car_22.906184374832964" accel="1.0" decel="5.0" sigma="0.0" length="4.5" maxSpeed="6.362828993009156" />
	<vType id="vType_car_18.413200900993743" accel="1.0" decel="5.0" sigma="0.0" length="4.5" maxSpeed="5.114778028053817" />
	<vType id="vType_car_7.05641025008837" accel="1.0" decel="5.0" sigma="0.0" length="4.5" maxSpeed="1.9601139583578806" />
	<vType id="vType_car_34.82390158407574" accel="1.0" decel="5.0" sigma="0.0" length="4.5" maxSpeed="9.673305995576595" />
	<vType id="vType_car_8.765786243585403" accel="1.0" decel="5.0" sigma="0.0" length="4.5" maxSpeed="2.4349406232181674" />
	<vType id="vType_car_25.92239744460367" accel="1.0" decel="5.0" sigma="0.0" length="4.5" maxSpeed="7.200665956834353" />
	<vType id="vType_car_21.513600239047204" accel="1.0" decel="5.0" sigma="0.0" length="4.5" maxSpeed="5.976000066402001" />
	<vType id="vType_car_27.41849279667069" accel="1.0" decel="5.0" sigma="0.0" length="4.5" maxSpeed="7.616247999075192" />
	<vType id="vType_car_3.7776390864048905" accel="1.0" decel="5.0" sigma="0.0" length="4.5" maxSpeed="1.0493441906680252" />
	<vType id="vType_car_11.6945245670528" accel="1.0" decel="5.0" sigma="0.0" length="4.5" maxSpeed="3.248479046403556" />
	<vType id="vType_car_4.085575884793274" accel="1.0" decel="5.0" sigma="0.0" length="4.5" maxSpeed="1.1348821902203539" />
	<vType id="vType_car_7.8805405602707745" accel="1.0" decel="5.0" sigma="0.0" length="4.5" maxSpeed="2.1890390445196597" />
	<vType id="vType_car_8.569770422926405" accel="1.0" decel="5.0" sigma="0.0" length="4.5" maxSpeed="2.3804917841462236" />
	<vType id="vType_car_6.492287616651692" accel="1.0" decel="5.0" sigma="0.0" length="4.5" maxSpeed="1.8034132268476921" />
	<vType id="vType_car_8.772628101307228" accel="1.0" decel="5.0" sigma="0.0" length="4.5" maxSpeed="2.436841139252008" />
	<vType id="vType_car_10.273354923915177" accel="1.0" decel="5.0" sigma="0.0" length="4.5" maxSpeed="2.853709701087549" />
	<vType id="vType_car_3.986133165692739" accel="1.0" decel="5.0" sigma="0.0" length="4.5" maxSpeed="1.1072592126924274" />
	<vType id="vType_car_9.542622016060026" accel="1.0" decel="5.0" sigma="0.0" length="4.5" maxSpeed="2.6507283377944515" />
	<vType id="vType_car_3.7776390864048897" accel="1.0" decel="5.0" sigma="0.0" length="4.5" maxSpeed="1.049344190668025" />
	<vType id="vType_car_11.293121445874306" accel="1.0" decel="5.0" sigma="0.0" length="4.5" maxSpeed="3.136978179409529" />
	<vType id="vType_car_2.7941502744011424" accel="1.0" decel="5.0" sigma="0.0" length="4.5" maxSpeed="0.7761528540003173" />
	<vType id="vType_car_9.391795599711244" accel="1.0" decel="5.0" sigma="0.0" length="4.5" maxSpeed="2.608832111030901" />
	<vType id="vType_car_11.712759832240396" accel="1.0" decel="5.0" sigma="0.0" length="4.5" maxSpeed="3.2535443978445544" />
	<vType id="vType_car_9.75547476941661" accel="1.0" decel="5.0" sigma="0.0" length="4.5" maxSpeed="2.709854102615725" />
	<vType id="vType_car_33.2845427668764" accel="1.0" decel="5.0" sigma="0.0" length="4.5" maxSpeed="9.245706324132334" />
	<vType id="vType_car_25.312316628959458" accel="1.0" decel="5.0" sigma="0.0" length="4.5" maxSpeed="7.031199063599849" />
	<vType id="vType_bus_9.527288084374279" accel="1.0" decel="5.0" sigma="0.0" length="13" maxSpeed="2.6464689123261884" />
	<vType id="vType_car_31.04199187545307" accel="1.0" decel="5.0" sigma="0.0" length="4.5" maxSpeed="8.622775520959186" />
	<vType id="vType_car_14.392154462785427" accel="1.0" decel="5.0" sigma="0.0" length="4.5" maxSpeed="3.997820684107063" />
	<vType id="vType_car_4.001174706881978" accel="1.0" decel="5.0" sigma="0.0" length="4.5" maxSpeed="1.1114374185783271" />
	<vType id="vType_car_8.964228781729398" accel="1.0" decel="5.0" sigma="0.0" length="4.5" maxSpeed="2.490063550480388" />
	<vType id="vType_car_23.676539100463323" accel="1.0" decel="5.0" sigma="0.0" length="4.5" maxSpeed="6.576816416795367" />
	<vType id="vType_car_9.898051389202356" accel="1.0" decel="5.0" sigma="0.0" length="4.5" maxSpeed="2.7494587192228765" />
	<vType id="vType_truck_12.484800446231345" accel="1.0" decel="5.0" sigma="0.0" length="8" maxSpeed="3.4680001239531513" />
	<vType id="vType_car_8.82388255157902" accel="1.0" decel="5.0" sigma="0.0" length="4.5" maxSpeed="2.451078486549728" />
	<vType id="vType_car_35.098761352072" accel="1.0" decel="5.0" sigma="0.0" length="4.5" maxSpeed="9.749655931131112" />
	<vType id="vType_car_31.974866233881524" accel="1.0" decel="5.0" sigma="0.0" length="4.5" maxSpeed="8.881907287189312" />
	<vType id="vType_car_10.874053524867861" accel="1.0" decel="5.0" sigma="0.0" length="4.5" maxSpeed="3.020570423574406" />
	<vType id="vType_car_34.233145103119334" accel="1.0" decel="5.0" sigma="0.0" length="4.5" maxSpeed="9.509206973088704" />
	<vType id="vType_truck_25.487155888718338" accel="1.0" decel="5.0" sigma="0.0" length="8" maxSpeed="7.079765524643983" />
	<vType id="vType_car_33.27704332611694" accel="1.0" decel="5.0" sigma="0.0" length="4.5" maxSpeed="9.243623146143594" />
	<vType id="vType_car_16.250417335213992" accel="1.0" decel="5.0" sigma="0.0" length="4.5" maxSpeed="4.51400481533722" />
	<vType id="vType_car_4.243649753579908" accel="1.0" decel="5.0" sigma="0.0" length="4.5" maxSpeed="1.1787915982166413" />
	<vType id="vType_car_15.013536099572105" accel="1.0" decel="5.0" sigma="0.0" length="4.5" maxSpeed="4.1704266943255845" />
	<vType id="vType_car_23.917333408831347" accel="1.0" decel="5.0" sigma="0.0" length="4.5" maxSpeed="6.643703724675374" />
	<vType id="vType_car_16.453522585989155" accel="1.0" decel="5.0" sigma="0.0" length="4.5" maxSpeed="4.570422940552543" />
	<vType id="vType_car_6.097696974783546" accel="1.0" decel="5.0" sigma="0.0" length="4.5" maxSpeed="1.6938047152176516" />
	<vType id="vType_car_34.4042430505602" accel="1.0" decel="5.0" sigma="0.0" length="4.5" maxSpeed="9.556734180711166" />
	<vType id="vType_car_19.967598445362523" accel="1.0" decel="5.0" sigma="0.0" length="4.5" maxSpeed="5.546555123711812" />
	<vType id="vType_car_17.76853466302071" accel="1.0" decel="5.0" sigma="0.0" length="4.5" maxSpeed="4.935704073061308" />
	<vType id="vType_car_52.88694720966846" accel="1.0" decel="5.0" sigma="0.0" length="4.5" maxSpeed="14.69081866935235" />
	<vType id="vType_car_18.830846710310855" accel="1.0" decel="5.0" sigma="0.0" length="4.5" maxSpeed="5.230790752864126" />
	<vType id="vType_car_23.63817517434232" accel="1.0" decel="5.0" sigma="0.0" length="4.5" maxSpeed="6.566159770650644" />
	<vType id="vType_car_6.390243931486247" accel="1.0" decel="5.0" sigma="0.0" length="4.5" maxSpeed="1.7750677587461796" />
	<vType id="vType_car_17.043448208063786" accel="1.0" decel="5.0" sigma="0.0" length="4.5" maxSpeed="4.734291168906608" />
	<vType id="vType_car_4.3173018130341605" accel="1.0" decel="5.0" sigma="0.0" length="4.5" maxSpeed="1.1992505036206" />
	<vType id="vType_car_20.472562120050874" accel="1.0" decel="5.0" sigma="0.0" length="4.5" maxSpeed="5.686822811125243" />
	<vType id="vType_car_27.98572430922559" accel="1.0" decel="5.0" sigma="0.0" length="4.5" maxSpeed="7.773812308118218" />
	<vType id="vType_car_20.13608015833869" accel="1.0" decel="5.0" sigma="0.0" length="4.5" maxSpeed="5.5933555995385245" />
	<vType id="vType_car_30.907786779949586" accel="1.0" decel="5.0" sigma="0.0" length="4.5" maxSpeed="8.585496327763774" />
	<vType id="vType_car_20.217751272209423" accel="1.0" decel="5.0" sigma="0.0" length="4.5" maxSpeed="5.616042020058173" />
	<vType id="vType_car_30.828525799737847" accel="1.0" decel="5.0" sigma="0.0" length="4.5" maxSpeed="8.563479388816068" />
	<vType id="vType_car_19.74610180483195" accel="1.0" decel="5.0" sigma="0.0" length="4.5" maxSpeed="5.4850282791199865" />
	<vType id="vType_car_27.234988682206655" accel="1.0" decel="5.0" sigma="0.0" length="4.5" maxSpeed="7.565274633946293" />
	<vType id="vType_car_19.790102107762674" accel="1.0" decel="5.0" sigma="0.0" length="4.5" maxSpeed="5.497250585489632" />
	<vType id="vType_car_18.741853838100695" accel="1.0" decel="5.0" sigma="0.0" length="4.5" maxSpeed="5.206070510583526" />
	<vType id="vType_car_3.964269180638032" accel="1.0" decel="5.0" sigma="0.0" length="4.5" maxSpeed="1.1011858835105643" />
	<vType id="vType_car_15.296750259383453" accel="1.0" decel="5.0" sigma="0.0" length="4.5" maxSpeed="4.249097294273181" />
	<vType id="vType_car_7.550382893202296" accel="1.0" decel="5.0" sigma="0.0" length="4.5" maxSpeed="2.0973285814450824" />
	<vType id="vType_car_5.886206876137728" accel="1.0" decel="5.0" sigma="0.0" length="4.5" maxSpeed="1.6350574655938133" />
	<vType id="vType_car_4.19796278173624" accel="1.0" decel="5.0" sigma="0.0" length="4.5" maxSpeed="1.166100772704511" />
	<vType id="vType_car_24.250524142453354" accel="1.0" decel="5.0" sigma="0.0" length="4.5" maxSpeed="6.736256706237043" />
	<vType id="vType_car_22.560728170821093" accel="1.0" decel="5.0" sigma="0.0" length="4.5" maxSpeed="6.2668689363391925" />
	<vType id="vType_car_21.49234592718072" accel="1.0" decel="5.0" sigma="0.0" length="4.5" maxSpeed="5.9700960908835325" />
	<vType id="vType_car_3.567770248271285" accel="1.0" decel="5.0" sigma="0.0" length="4.5" maxSpeed="0.9910472911864681" />
	<vType id="vType_car_24.0958575846845" accel="1.0" decel="5.0" sigma="0.0" length="4.5" maxSpeed="6.693293773523472" />
	<vType id="vType_car_3.9304446949507557" accel="1.0" decel="5.0" sigma="0.0" length="4.5" maxSpeed="1.0917901930418765" />
	<vType id="vType_car_30.329514769490387" accel="1.0" decel="5.0" sigma="0.0" length="4.5" maxSpeed="8.42486521374733" />
	<vType id="vType_car_34.692918791672355" accel="1.0" decel="5.0" sigma="0.0" length="4.5" maxSpeed="9.636921886575655" />
	<vType id="vType_car_67.35140331868102" accel="1.0" decel="5.0" sigma="0.0" length="4.5" maxSpeed="18.70872314407806" />
	<vType id="vType_car_4.7560891152419575" accel="1.0" decel="5.0" sigma="0.0" length="4.5" maxSpeed="1.3211358653449883" />
    <vType id="vType_car_30.48092428335613" accel="1.0" decel="5.0" sigma="0.0" length="4.5" maxSpeed="8.46692341204337" />
	<vType id="vType_car_5.791517414763491" accel="1.0" decel="5.0" sigma="0.0" length="4.5" maxSpeed="1.608754837434303" />
	<vType id="vType_car_10.509514393278792" accel="1.0" decel="5.0" sigma="0.0" length="4.5" maxSpeed="2.9193095536885534" />
	<vType id="vType_car_8.9815977307311" accel="1.0" decel="5.0" sigma="0.0" length="4.5" maxSpeed="2.4948882585364163" />
	<vType id="vType_car_29.824576324677736" accel="1.0" decel="5.0" sigma="0.0" length="4.5" maxSpeed="8.284604534632704" />
	<vType id="vType_car_9.874905778286795" accel="1.0" decel="5.0" sigma="0.0" length="4.5" maxSpeed="2.743029382857443" />
	<vType id="vType_car_11.429172554061639" accel="1.0" decel="5.0" sigma="0.0" length="4.5" maxSpeed="3.1747701539060107" />
	<vType id="vType_car_36.72514925184137" accel="1.0" decel="5.0" sigma="0.0" length="4.5" maxSpeed="10.201430347733714" />
	<vType id="vType_car_5.287709724823439" accel="1.0" decel="5.0" sigma="0.0" length="4.5" maxSpeed="1.4688082568953997" />
	<vType id="vType_car_11.453999588490051" accel="1.0" decel="5.0" sigma="0.0" length="4.5" maxSpeed="3.1816665523583474" />
	<vType id="vType_car_33.04542850014664" accel="1.0" decel="5.0" sigma="0.0" length="4.5" maxSpeed="9.179285694485179" />
	<vType id="vType_car_9.841519439341639" accel="1.0" decel="5.0" sigma="0.0" length="4.5" maxSpeed="2.7337553998171216" />
	<vType id="vType_car_24.034002236729297" accel="1.0" decel="5.0" sigma="0.0" length="4.5" maxSpeed="6.676111732424804" />
	<vType id="vType_car_33.941776867063304" accel="1.0" decel="5.0" sigma="0.0" length="4.5" maxSpeed="9.428271351962028" />
	<vType id="vType_car_8.419198488372036" accel="1.0" decel="5.0" sigma="0.0" length="4.5" maxSpeed="2.33866624677001" />
	<vType id="vType_car_30.102981630700008" accel="1.0" decel="5.0" sigma="0.0" length="4.5" maxSpeed="8.361939341861113" />
	<vType id="vType_car_14.119393628417086" accel="1.0" decel="5.0" sigma="0.0" length="4.5" maxSpeed="3.922053785671413" />
	<vType id="vType_car_10.541551392042896" accel="1.0" decel="5.0" sigma="0.0" length="4.5" maxSpeed="2.9282087200119156" />
	<vType id="vType_car_6.192611576157201" accel="1.0" decel="5.0" sigma="0.0" length="4.5" maxSpeed="1.7201698822658893" />
	<vType id="vType_car_17.85738182933678" accel="1.0" decel="5.0" sigma="0.0" length="4.5" maxSpeed="4.960383841482439" />
	<vType id="vType_car_15.380300828143445" accel="1.0" decel="5.0" sigma="0.0" length="4.5" maxSpeed="4.272305785595401" />
	<vType id="vType_car_23.570851226832357" accel="1.0" decel="5.0" sigma="0.0" length="4.5" maxSpeed="6.547458674120099" />
	<vType id="vType_car_19.79029702499463" accel="1.0" decel="5.0" sigma="0.0" length="4.5" maxSpeed="5.497304729165175" />
	<vType id="vType_car_22.14931333441673" accel="1.0" decel="5.0" sigma="0.0" length="4.5" maxSpeed="6.15258703733798" />
	<vType id="vType_car_18.408571249181687" accel="1.0" decel="5.0" sigma="0.0" length="4.5" maxSpeed="5.113492013661579" />
	<vType id="vType_car_4.121689984591991" accel="1.0" decel="5.0" sigma="0.0" length="4.5" maxSpeed="1.1449138846088864" />
	<vType id="vType_car_12.955470207638333" accel="1.0" decel="5.0" sigma="0.0" length="4.5" maxSpeed="3.598741724343981" />
	<vType id="vType_car_4.1297650620030275" accel="1.0" decel="5.0" sigma="0.0" length="4.5" maxSpeed="1.1471569616675077" />
	<vType id="vType_car_37.22234397845627" accel="1.0" decel="5.0" sigma="0.0" length="4.5" maxSpeed="10.339539994015631" />
	<vType id="vType_car_22.02139434851699" accel="1.0" decel="5.0" sigma="0.0" length="4.5" maxSpeed="6.1170539856991635" />
	<vType id="vType_car_20.344794220626575" accel="1.0" decel="5.0" sigma="0.0" length="4.5" maxSpeed="5.651331727951827" />
	<vType id="vType_car_6.298460774471775" accel="1.0" decel="5.0" sigma="0.0" length="4.5" maxSpeed="1.7495724373532708" />
	<vType id="vType_car_6.560894695742044" accel="1.0" decel="5.0" sigma="0.0" length="4.5" maxSpeed="1.8224707488172343" />
	<vType id="vType_car_21.257798380137764" accel="1.0" decel="5.0" sigma="0.0" length="4.5" maxSpeed="5.9049439944827125" />
	<vType id="vType_car_27.858053797301352" accel="1.0" decel="5.0" sigma="0.0" length="4.5" maxSpeed="7.7383482770281535" />
	<vType id="vType_car_10.908486378209501" accel="1.0" decel="5.0" sigma="0.0" length="4.5" maxSpeed="3.0301351050581946" />
	<vType id="vType_car_28.688905429116566" accel="1.0" decel="5.0" sigma="0.0" length="4.5" maxSpeed="7.969140396976824" />
	<vType id="vType_car_17.570222183206383" accel="1.0" decel="5.0" sigma="0.0" length="4.5" maxSpeed="4.880617273112884" />
	<vType id="vType_car_19.249773159719414" accel="1.0" decel="5.0" sigma="0.0" length="4.5" maxSpeed="5.34715921103317" />
	<vType id="vType_car_3.541536643504584" accel="1.0" decel="5.0" sigma="0.0" length="4.5" maxSpeed="0.9837601787512733" />
	<vType id="vType_car_3.821634179069794" accel="1.0" decel="5.0" sigma="0.0" length="4.5" maxSpeed="1.0615650497416094" />
	<vType id="vType_car_17.51538425665755" accel="1.0" decel="5.0" sigma="0.0" length="4.5" maxSpeed="4.865384515738208" />
	<vType id="vType_car_46.78133632381304" accel="1.0" decel="5.0" sigma="0.0" length="4.5" maxSpeed="12.994815645503623" />
	<vType id="vType_car_27.450939500127884" accel="1.0" decel="5.0" sigma="0.0" length="4.5" maxSpeed="7.625260972257745" />
	<vType id="vType_car_6.8172193515954564" accel="1.0" decel="5.0" sigma="0.0" length="4.5" maxSpeed="1.893672042109849" />
	<vType id="vType_car_18.402075464442053" accel="1.0" decel="5.0" sigma="0.0" length="4.5" maxSpeed="5.111687629011681" />
	<vType id="vType_car_19.43426580025842" accel="1.0" decel="5.0" sigma="0.0" length="4.5" maxSpeed="5.3984071667384494" />
	<vType id="vType_car_4.173735157400978" accel="1.0" decel="5.0" sigma="0.0" length="4.5" maxSpeed="1.1593708770558273" />
	<vType id="vType_car_17.931755031981204" accel="1.0" decel="5.0" sigma="0.0" length="4.5" maxSpeed="4.981043064439223" />
	<vType id="vType_car_2.839824844927144" accel="1.0" decel="5.0" sigma="0.0" length="4.5" maxSpeed="0.7888402347019844" />
	<vType id="vType_car_28.407189993236692" accel="1.0" decel="5.0" sigma="0.0" length="4.5" maxSpeed="7.890886109232414" />
	<vType id="vType_car_27.982724820407046" accel="1.0" decel="5.0" sigma="0.0" length="4.5" maxSpeed="7.772979116779735" />
	<vType id="vType_car_36.4137444384726" accel="1.0" decel="5.0" sigma="0.0" length="4.5" maxSpeed="10.114929010686833" />
	<vType id="vType_car_21.33589827362678" accel="1.0" decel="5.0" sigma="0.0" length="4.5" maxSpeed="5.926638409340772" />
	<vType id="vType_car_28.597547098096168" accel="1.0" decel="5.0" sigma="0.0" length="4.5" maxSpeed="7.943763082804491" />
	<vType id="vType_car_4.057257720759578" accel="1.0" decel="5.0" sigma="0.0" length="4.5" maxSpeed="1.1270160335443273" />
	<vType id="vType_car_4.8504867950581305" accel="1.0" decel="5.0" sigma="0.0" length="4.5" maxSpeed="1.3473574430717028" />
	<vType id="vType_car_20.42374702659804" accel="1.0" decel="5.0" sigma="0.0" length="4.5" maxSpeed="5.6732630629439" />
	<vType id="vType_car_4.249843972205501" accel="1.0" decel="5.0" sigma="0.0" length="4.5" maxSpeed="1.180512214501528" />
	<vType id="vType_car_26.599949656609205" accel="1.0" decel="5.0" sigma="0.0" length="4.5" maxSpeed="7.388874904613668" />
	<vType id="vType_truck_31.472707885576686" accel="1.0" decel="5.0" sigma="0.0" length="8" maxSpeed="8.742418857104635" />
	<vType id="vType_car_21.035253685286925" accel="1.0" decel="5.0" sigma="0.0" length="4.5" maxSpeed="5.843126023690813" />
	<vType id="vType_car_25.73366638706757" accel="1.0" decel="5.0" sigma="0.0" length="4.5" maxSpeed="7.148240663074325" />
	<vType id="vType_car_4.057009385687571" accel="1.0" decel="5.0" sigma="0.0" length="4.5" maxSpeed="1.1269470515798807" />
	<vType id="vType_car_3.8625266702237595" accel="1.0" decel="5.0" sigma="0.0" length="4.5" maxSpeed="1.0729240750621554" />
	<vType id="vType_car_23.703686815250904" accel="1.0" decel="5.0" sigma="0.0" length="4.5" maxSpeed="6.584357448680807" />
	<vType id="vType_car_27.1638785829767" accel="1.0" decel="5.0" sigma="0.0" length="4.5" maxSpeed="7.545521828604639" />
	<vType id="vType_car_25.381848088545222" accel="1.0" decel="5.0" sigma="0.0" length="4.5" maxSpeed="7.050513357929228" />
	<vType id="vType_car_23.08937106595703" accel="1.0" decel="5.0" sigma="0.0" length="4.5" maxSpeed="6.413714184988065" />
	<vType id="vType_car_14.96134452185517" accel="1.0" decel="5.0" sigma="0.0" length="4.5" maxSpeed="4.155929033848658" />
	<vType id="vType_car_13.437897301109707" accel="1.0" decel="5.0" sigma="0.0" length="4.5" maxSpeed="3.732749250308252" />
	<vType id="vType_car_4.628382036719089" accel="1.0" decel="5.0" sigma="0.0" length="4.5" maxSpeed="1.2856616768664137" />
	<vType id="vType_car_55.66230576570049" accel="1.0" decel="5.0" sigma="0.0" length="4.5" maxSpeed="15.461751601583469" />
	<vType id="vType_car_21.374420740119312" accel="1.0" decel="5.0" sigma="0.0" length="4.5" maxSpeed="5.937339094477586" />
	<vType id="vType_car_14.139779178180381" accel="1.0" decel="5.0" sigma="0.0" length="4.5" maxSpeed="3.927716438383439" />
	<vType id="vType_car_1.5740162860020377" accel="1.0" decel="5.0" sigma="0.0" length="4.5" maxSpeed="0.4372267461116771" />
	<vType id="vType_car_33.91238771621626" accel="1.0" decel="5.0" sigma="0.0" length="4.5" maxSpeed="9.42010769894896" />
	<vType id="vType_car_14.786894878236277" accel="1.0" decel="5.0" sigma="0.0" length="4.5" maxSpeed="4.107470799510077" />
	<vType id="vType_car_3.643716010568503" accel="1.0" decel="5.0" sigma="0.0" length="4.5" maxSpeed="1.0121433362690286" />
	<vType id="vType_car_4.021631583305715" accel="1.0" decel="5.0" sigma="0.0" length="4.5" maxSpeed="1.1171198842515875" />
	<vType id="vType_car_3.6371354037148977" accel="1.0" decel="5.0" sigma="0.0" length="4.5" maxSpeed="1.0103153899208048" />
	<vType id="vType_car_4.0088420927077975" accel="1.0" decel="5.0" sigma="0.0" length="4.5" maxSpeed="1.113567247974388" />
	<vType id="vType_car_4.890133065945135" accel="1.0" decel="5.0" sigma="0.0" length="4.5" maxSpeed="1.3583702960958708" />
	<vType id="vType_car_37.845089263205224" accel="1.0" decel="5.0" sigma="0.0" length="4.5" maxSpeed="10.512524795334784" />
	<vType id="vType_car_8.848755821164204" accel="1.0" decel="5.0" sigma="0.0" length="4.5" maxSpeed="2.4579877281011675" />
	<vType id="vType_car_3.77763908640489" accel="1.0" decel="5.0" sigma="0.0" length="4.5" maxSpeed="1.049344190668025" />
	<vType id="vType_car_8.132940499830388" accel="1.0" decel="5.0" sigma="0.0" length="4.5" maxSpeed="2.2591501388417745" />
	<vType id="vType_car_22.220864149645447" accel="1.0" decel="5.0" sigma="0.0" length="4.5" maxSpeed="6.172462263790401" />
	<vType id="vType_car_4.060035323619014" accel="1.0" decel="5.0" sigma="0.0" length="4.5" maxSpeed="1.1277875898941707" />
	<vType id="vType_car_7.754572841652862" accel="1.0" decel="5.0" sigma="0.0" length="4.5" maxSpeed="2.1540480115702394" />
	<vType id="vType_car_16.102471520844272" accel="1.0" decel="5.0" sigma="0.0" length="4.5" maxSpeed="4.472908755790075" />
	<vType id="vType_car_21.719053755979697" accel="1.0" decel="5.0" sigma="0.0" length="4.5" maxSpeed="6.033070487772138" />
	<vType id="vType_car_6.218918044793614" accel="1.0" decel="5.0" sigma="0.0" length="4.5" maxSpeed="1.7274772346648926" />
	<vType id="vType_car_0.8394753525344202" accel="1.0" decel="5.0" sigma="0.0" length="4.5" maxSpeed="0.2331875979262278" />
	<vType id="vType_car_5.531083061958624" accel="1.0" decel="5.0" sigma="0.0" length="4.5" maxSpeed="1.5364119616551732" />
	<vType id="vType_car_3.795611810789477" accel="1.0" decel="5.0" sigma="0.0" length="4.5" maxSpeed="1.054336614108188" />
	<vType id="vType_car_20.90486135979147" accel="1.0" decel="5.0" sigma="0.0" length="4.5" maxSpeed="5.8069059332754085" />
	<vType id="vType_car_5.762372549146236" accel="1.0" decel="5.0" sigma="0.0" length="4.5" maxSpeed="1.6006590414295099" />
	<vType id="vType_car_27.842408510368173" accel="1.0" decel="5.0" sigma="0.0" length="4.5" maxSpeed="7.734002363991159" />
	<vType id="vType_car_5.348566391519452" accel="1.0" decel="5.0" sigma="0.0" length="4.5" maxSpeed="1.4857128865331812" />
	<vType id="vType_car_57.65485369746906" accel="1.0" decel="5.0" sigma="0.0" length="4.5" maxSpeed="16.01523713818585" />
	<vType id="vType_car_9.703176038651335" accel="1.0" decel="5.0" sigma="0.0" length="4.5" maxSpeed="2.695326677403149" />
	<vType id="vType_car_8.944224045131419" accel="1.0" decel="5.0" sigma="0.0" length="4.5" maxSpeed="2.484506679203172" />
	<vType id="vType_car_30.809224227512573" accel="1.0" decel="5.0" sigma="0.0" length="4.5" maxSpeed="8.558117840975715" />
	<vType id="vType_car_6.076190229475728" accel="1.0" decel="5.0" sigma="0.0" length="4.5" maxSpeed="1.6878306192988133" />
	<vType id="vType_car_12.224696878066428" accel="1.0" decel="5.0" sigma="0.0" length="4.5" maxSpeed="3.39574913279623" />
	<vType id="vType_car_8.107441529727103" accel="1.0" decel="5.0" sigma="0.0" length="4.5" maxSpeed="2.252067091590862" />
	<vType id="vType_car_34.604442152189364" accel="1.0" decel="5.0" sigma="0.0" length="4.5" maxSpeed="9.612345042274823" />
	<vType id="vType_car_10.482832738060008" accel="1.0" decel="5.0" sigma="0.0" length="4.5" maxSpeed="2.9118979827944464" />
	<vType id="vType_car_9.021293165322284" accel="1.0" decel="5.0" sigma="0.0" length="4.5" maxSpeed="2.505914768145079" />
	<vType id="vType_car_11.875709775804856" accel="1.0" decel="5.0" sigma="0.0" length="4.5" maxSpeed="3.298808271056904" />
	<vType id="vType_car_38.28043326080911" accel="1.0" decel="5.0" sigma="0.0" length="4.5" maxSpeed="10.633453683558086" />
	<vType id="vType_car_6.858095533597731" accel="1.0" decel="5.0" sigma="0.0" length="4.5" maxSpeed="1.9050265371104809" />
	<vType id="vType_car_6.937444410069848" accel="1.0" decel="5.0" sigma="0.0" length="4.5" maxSpeed="1.9270678916860686" />
	<vType id="vType_car_11.04230965503188" accel="1.0" decel="5.0" sigma="0.0" length="4.5" maxSpeed="3.067308237508856" />
	<vType id="vType_car_26.818114886747352" accel="1.0" decel="5.0" sigma="0.0" length="4.5" maxSpeed="7.44947635742982" />
	<vType id="vType_car_25.9622756196854" accel="1.0" decel="5.0" sigma="0.0" length="4.5" maxSpeed="7.211743227690389" />
	<vType id="vType_car_5.044753946672355" accel="1.0" decel="5.0" sigma="0.0" length="4.5" maxSpeed="1.4013205407423208" />
	<vType id="vType_car_68.94019143758565" accel="1.0" decel="5.0" sigma="0.0" length="4.5" maxSpeed="19.150053177107125" />
	<vType id="vType_car_5.467050644737197" accel="1.0" decel="5.0" sigma="0.0" length="4.5" maxSpeed="1.5186251790936658" />
	<route id="route_north_to_east" edges="north_to_center center_to_east" />
	<route id="route_north_to_south" edges="north_to_center center_to_south" />
	<route id="route_north_to_west" edges="north_to_center center_to_west" />
	<route id="route_east_to_west" edges="east_to_center center_to_west" />
	<route id="route_east_to_south" edges="east_to_center center_to_south" />
	<route id="route_east_to_north" edges="east_to_center center_to_north" />
	<route id="route_south_to_west" edges="south_to_center center_to_west" />
	<route id="route_south_to_north" edges="south_to_center center_to_north" />
	<route id="route_south_to_east" edges="south_to_center center_to_east" />
	<route id="route_west_to_south" edges="west_to_center center_to_south" />
	<route id="route_west_to_north" edges="west_to_center center_to_north" />
	<route id="route_west_to_east" edges="west_to_center center_to_east" />
	<vehicle id="veh685" type="vType_car_19.77709169909583" route="route_east_to_west" depart="0.03" />
	<vehicle id="veh706" type="vType_car_24.03659419208535" route="route_west_to_east" depart="0.03" />
	<vehicle id="veh747" type="vType_car_7.33582090348938" route="route_east_to_north" depart="0.03" />
	<vehicle id="veh722" type="vType_car_22.62598679814697" route="route_east_to_west" depart="0.03" />
	<vehicle id="veh709" type="vType_car_15.298966425698653" route="route_west_to_north" depart="0.03" />
	<vehicle id="veh770" type="vType_car_26.36799840164993" route="route_south_to_north" depart="1.33" />
	<vehicle id="veh771" type="vType_car_36.53263248907233" route="route_south_to_west" depart="1.80" />
	<vehicle id="veh779" type="vType_car_6.255991767098295" route="route_east_to_north" depart="8.94" />
	<vehicle id="veh780" type="vType_car_22.906184374832964" route="route_west_to_north" depart="10.54" />
	<vehicle id="veh785" type="vType_car_7.05641025008837" route="route_east_to_north" depart="12.07" />
	<vehicle id="veh783" type="vType_car_34.82390158407574" route="route_west_to_east" depart="12.84" />
	<vehicle id="veh788" type="vType_car_25.92239744460367" route="route_west_to_north" depart="13.38" />
	<vehicle id="veh789" type="vType_car_21.513600239047204" route="route_west_to_east" depart="15.04" />
	<vehicle id="veh791" type="vType_car_27.41849279667069" route="route_west_to_north" depart="16.21" />
	<vehicle id="veh794" type="vType_car_11.6945245670528" route="route_west_to_north" depart="18.68" />
	<vehicle id="veh799" type="vType_car_8.569770422926405" route="route_east_to_north" depart="22.61" />
	<vehicle id="veh806" type="vType_car_8.772628101307228" route="route_east_to_north" depart="27.88" />
	<vehicle id="veh811" type="vType_car_10.273354923915177" route="route_east_to_north" depart="30.29" />
	<vehicle id="veh814" type="vType_car_9.542622016060026" route="route_east_to_north" depart="32.29" />
	<vehicle id="veh818" type="vType_car_11.293121445874306" route="route_east_to_north" depart="35.12" />
	<vehicle id="veh821" type="vType_car_9.391795599711244" route="route_east_to_north" depart="38.36" />
	<vehicle id="veh822" type="vType_car_11.712759832240396" route="route_east_to_north" depart="40.86" />
	<vehicle id="veh824" type="vType_car_9.75547476941661" route="route_east_to_north" depart="42.16" />