<?xml version='1.0' encoding='utf-8'?>
<routes><vType id="vType_car_30.48092428335613" accel="1.0" decel="5.0" sigma="0.0" length="4.5" maxSpeed="8.46692341204337" /><vType id="vType_car_5.791517414763491" accel="1.0" decel="5.0" sigma="0.0" length="4.5" maxSpeed="1.608754837434303" /><vType id="vType_car_10.509514393278792" accel="1.0" decel="5.0" sigma="0.0" length="4.5" maxSpeed="2.9193095536885534" /><vType id="vType_car_3.7776390864048905" accel="1.0" decel="5.0" sigma="0.0" length="4.5" maxSpeed="1.0493441906680252" /><vType id="vType_car_8.9815977307311" accel="1.0" decel="5.0" sigma="0.0" length="4.5" maxSpeed="2.4948882585364163" /><vType id="vType_car_29.824576324677736" accel="1.0" decel="5.0" sigma="0.0" length="4.5" maxSpeed="8.284604534632704" /><vType id="vType_car_9.874905778286795" accel="1.0" decel="5.0" sigma="0.0" length="4.5" maxSpeed="2.743029382857443" /><vType id="vType_car_11.429172554061639" accel="1.0" decel="5.0" sigma="0.0" length="4.5" maxSpeed="3.1747701539060107" /><vType id="vType_car_36.72514925184137" accel="1.0" decel="5.0" sigma="0.0" length="4.5" maxSpeed="10.201430347733714" /><vType id="vType_car_5.287709724823439" accel="1.0" decel="5.0" sigma="0.0" length="4.5" maxSpeed="1.4688082568953997" /><vType id="vType_car_11.453999588490051" accel="1.0" decel="5.0" sigma="0.0" length="4.5" maxSpeed="3.1816665523583474" /><vType id="vType_car_33.04542850014664" accel="1.0" decel="5.0" sigma="0.0" length="4.5" maxSpeed="9.179285694485179" /><vType id="vType_car_9.841519439341639" accel="1.0" decel="5.0" sigma="0.0" length="4.5" maxSpeed="2.7337553998171216" /><vType id="vType_car_24.034002236729297" accel="1.0" decel="5.0" sigma="0.0" length="4.5" maxSpeed="6.676111732424804" /><vType id="vType_car_33.941776867063304" accel="1.0" decel="5.0" sigma="0.0" length="4.5" maxSpeed="9.428271351962028" /><vType id="vType_car_8.419198488372036" accel="1.0" decel="5.0" sigma="0.0" length="4.5" maxSpeed="2.33866624677001" /><vType id="vType_car_30.102981630700008" accel="1.0" decel="5.0" sigma="0.0" length="4.5" maxSpeed="8.361939341861113" /><vType id="vType_car_14.119393628417086" accel="1.0" decel="5.0" sigma="0.0" length="4.5" maxSpeed="3.922053785671413" /><vType id="vType_car_10.541551392042896" accel="1.0" decel="5.0" sigma="0.0" length="4.5" maxSpeed="2.9282087200119156" /><vType id="vType_car_6.192611576157201" accel="1.0" decel="5.0" sigma="0.0" length="4.5" maxSpeed="1.7201698822658893" /><vType id="vType_car_17.85738182933678" accel="1.0" decel="5.0" sigma="0.0" length="4.5" maxSpeed="4.960383841482439" /><vType id="vType_car_15.380300828143445" accel="1.0" decel="5.0" sigma="0.0" length="4.5" maxSpeed="4.272305785595401" /><vType id="vType_car_23.570851226832357" accel="1.0" decel="5.0" sigma="0.0" length="4.5" maxSpeed="6.547458674120099" /><vType id="vType_car_6.287524681917692" accel="1.0" decel="5.0" sigma="0.0" length="4.5" maxSpeed="1.7465346338660257" /><vType id="vType_car_22.14931333441673" accel="1.0" decel="5.0" sigma="0.0" length="4.5" maxSpeed="6.15258703733798" /><vType id="vType_car_18.408571249181687" accel="1.0" decel="5.0" sigma="0.0" length="4.5" maxSpeed="5.113492013661579" /><vType id="vType_car_4.059164135479503" accel="1.0" decel="5.0" sigma="0.0" length="4.5" maxSpeed="1.1275455931887508" /><vType id="vType_car_12.955470207638333" accel="1.0" decel="5.0" sigma="0.0" length="4.5" maxSpeed="3.598741724343981" /><vType id="vType_car_4.1297650620030275" accel="1.0" decel="5.0" sigma="0.0" length="4.5" maxSpeed="1.1471569616675077" /><vType id="vType_car_37.22234397845627" accel="1.0" decel="5.0" sigma="0.0" length="4.5" maxSpeed="10.339539994015631" /><vType id="vType_car_22.02139434851699" accel="1.0" decel="5.0" sigma="0.0" length="4.5" maxSpeed="6.1170539856991635" /><vType id="vType_car_20.344794220626575" accel="1.0" decel="5.0" sigma="0.0" length="4.5" maxSpeed="5.651331727951827" /><vType id="vType_car_6.298460774471775" accel="1.0" decel="5.0" sigma="0.0" length="4.5" maxSpeed="1.7495724373532708" /><vType id="vType_car_5.1399030390994955" accel="1.0" decel="5.0" sigma="0.0" length="4.5" maxSpeed="1.4277508441943043" /><vType id="vType_car_21.257798380137764" accel="1.0" decel="5.0" sigma="0.0" length="4.5" maxSpeed="5.9049439944827125" /><vType id="vType_car_27.858053797301352" accel="1.0" decel="5.0" sigma="0.0" length="4.5" maxSpeed="7.7383482770281535" /><vType id="vType_car_7.159696744961845" accel="1.0" decel="5.0" sigma="0.0" length="4.5" maxSpeed="1.9888046513782904" /><vType id="vType_car_28.688905429116566" accel="1.0" decel="5.0" sigma="0.0" length="4.5" maxSpeed="7.969140396976824" /><vType id="vType_car_17.570222183206383" accel="1.0" decel="5.0" sigma="0.0" length="4.5" maxSpeed="4.880617273112884" /><vType id="vType_car_19.249773159719414" accel="1.0" decel="5.0" sigma="0.0" length="4.5" maxSpeed="5.34715921103317" /><vType id="vType_car_3.541536643504584" accel="1.0" decel="5.0" sigma="0.0" length="4.5" maxSpeed="0.9837601787512733" /><vType id="vType_car_3.821634179069794" accel="1.0" decel="5.0" sigma="0.0" length="4.5" maxSpeed="1.0615650497416094" /><vType id="vType_car_17.51538425665755" accel="1.0" decel="5.0" sigma="0.0" length="4.5" maxSpeed="4.865384515738208" /><vType id="vType_car_46.78133632381304" accel="1.0" decel="5.0" sigma="0.0" length="4.5" maxSpeed="12.994815645503623" /><vType id="vType_car_27.450939500127884" accel="1.0" decel="5.0" sigma="0.0" length="4.5" maxSpeed="7.625260972257745" /><vType id="vType_car_4.029836662894153" accel="1.0" decel="5.0" sigma="0.0" length="4.5" maxSpeed="1.1193990730261536" /><vType id="vType_car_18.402075464442053" accel="1.0" decel="5.0" sigma="0.0" length="4.5" maxSpeed="5.111687629011681" /><vType id="vType_car_19.43426580025842" accel="1.0" decel="5.0" sigma="0.0" length="4.5" maxSpeed="5.3984071667384494" /><vType id="vType_car_4.173735157400978" accel="1.0" decel="5.0" sigma="0.0" length="4.5" maxSpeed="1.1593708770558273" /><vType id="vType_car_17.931755031981204" accel="1.0" decel="5.0" sigma="0.0" length="4.5" maxSpeed="4.981043064439223" /><vType id="vType_car_2.839824844927144" accel="1.0" decel="5.0" sigma="0.0" length="4.5" maxSpeed="0.7888402347019844" /><vType id="vType_car_28.407189993236692" accel="1.0" decel="5.0" sigma="0.0" length="4.5" maxSpeed="7.890886109232414" /><vType id="vType_car_27.982724820407046" accel="1.0" decel="5.0" sigma="0.0" length="4.5" maxSpeed="7.772979116779735" /><vType id="vType_car_36.4137444384726" accel="1.0" decel="5.0" sigma="0.0" length="4.5" maxSpeed="10.114929010686833" /><vType id="vType_car_21.33589827362678" accel="1.0" decel="5.0" sigma="0.0" length="4.5" maxSpeed="5.926638409340772" /><vType id="vType_car_28.597547098096168" accel="1.0" decel="5.0" sigma="0.0" length="4.5" maxSpeed="7.943763082804491" /><vType id="vType_car_4.057257720759578" accel="1.0" decel="5.0" sigma="0.0" length="4.5" maxSpeed="1.1270160335443273" /><vType id="vType_car_4.8504867950581305" accel="1.0" decel="5.0" sigma="0.0" length="4.5" maxSpeed="1.3473574430717028" /><vType id="vType_car_20.42374702659804" accel="1.0" decel="5.0" sigma="0.0" length="4.5" maxSpeed="5.6732630629439" /><vType id="vType_car_4.249843972205501" accel="1.0" decel="5.0" sigma="0.0" length="4.5" maxSpeed="1.180512214501528" /><vType id="vType_car_26.599949656609205" accel="1.0" decel="5.0" sigma="0.0" length="4.5" maxSpeed="7.388874904613668" /><vType id="vType_truck_31.472707885576686" accel="1.0" decel="5.0" sigma="0.0" length="8" maxSpeed="8.742418857104635" /><vType id="vType_car_21.035253685286925" accel="1.0" decel="5.0" sigma="0.0" length="4.5" maxSpeed="5.843126023690813" /><vType id="vType_car_26.35911678481328" accel="1.0" decel="5.0" sigma="0.0" length="4.5" maxSpeed="7.321976884670356" /><vType id="vType_car_4.057009385687571" accel="1.0" decel="5.0" sigma="0.0" length="4.5" maxSpeed="1.1269470515798807" /><vType id="vType_car_3.8625266702237595" accel="1.0" decel="5.0" sigma="0.0" length="4.5" maxSpeed="1.0729240750621554" /><vType id="vType_car_23.703686815250904" accel="1.0" decel="5.0" sigma="0.0" length="4.5" maxSpeed="6.584357448680807" /><vType id="vType_car_27.1638785829767" accel="1.0" decel="5.0" sigma="0.0" length="4.5" maxSpeed="7.545521828604639" /><vType id="vType_car_5.959251690096421" accel="1.0" decel="5.0" sigma="0.0" length="4.5" maxSpeed="1.6553476916934502" /><vType id="vType_car_40.83823310400356" accel="1.0" decel="5.0" sigma="0.0" length="4.5" maxSpeed="11.343953640000988" /><vType id="vType_car_14.96134452185517" accel="1.0" decel="5.0" sigma="0.0" length="4.5" maxSpeed="4.155929033848658" /><vType id="vType_car_4.231440371000848" accel="1.0" decel="5.0" sigma="0.0" length="4.5" maxSpeed="1.175400103055791" /><vType id="vType_car_5.9781729059202675" accel="1.0" decel="5.0" sigma="0.0" length="4.5" maxSpeed="1.660603584977852" /><vType id="vType_car_55.66230576570049" accel="1.0" decel="5.0" sigma="0.0" length="4.5" maxSpeed="15.461751601583469" /><vType id="vType_car_3.761908245038667" accel="1.0" decel="5.0" sigma="0.0" length="4.5" maxSpeed="1.0449745125107408" /><vType id="vType_car_2.6749986820785434" accel="1.0" decel="5.0" sigma="0.0" length="4.5" maxSpeed="0.743055189466262" /><route id="route_north_to_east" edges="north_to_center center_to_east" /><route id="route_north_to_south" edges="north_to_center center_to_south" /><route id="route_north_to_west" edges="north_to_center center_to_west" /><route id="route_east_to_west" edges="east_to_center center_to_west" /><route id="route_east_to_south" edges="east_to_center center_to_south" /><route id="route_east_to_north" edges="east_to_center center_to_north" /><route id="route_south_to_west" edges="south_to_center center_to_west" /><route id="route_south_to_north" edges="south_to_center center_to_north" /><route id="route_south_to_east" edges="south_to_center center_to_east" /><route id="route_west_to_south" edges="west_to_center center_to_south" /><route id="route_west_to_north" edges="west_to_center center_to_north" /><route id="route_west_to_east" edges="west_to_center center_to_east" /><vehicle id="veh852" type="vType_car_30.48092428335613" route="route_east_to_west" depart="0.03" /><vehicle id="veh909" type="vType_car_8.9815977307311" route="route_east_to_north" depart="0.17" /><vehicle id="veh910" type="vType_car_29.824576324677736" route="route_west_to_south" depart="0.57" /><vehicle id="veh914" type="vType_car_9.874905778286795" route="route_east_to_north" depart="2.77" /><vehicle id="veh915" type="vType_car_11.429172554061639" route="route_east_to_west" depart="2.84" /><vehicle id="veh917" type="vType_car_36.72514925184137" route="route_east_to_west" depart="3.17" /><vehicle id="veh922" type="vType_car_11.453999588490051" route="route_west_to_north" depart="5.34" /><vehicle id="veh923" type="vType_car_33.04542850014664" route="route_east_to_west" depart="7.34" /><vehicle id="veh924" type="vType_car_9.841519439341639" route="route_east_to_north" depart="7.74" /><vehicle id="veh925" type="vType_car_24.034002236729297" route="route_west_to_south" depart="8.07" /><vehicle id="veh927" type="vType_car_33.941776867063304" route="route_east_to_west" depart="8.94" /><vehicle id="veh929" type="vType_car_8.419198488372036" route="route_east_to_north" depart="9.37" /><vehicle id="veh932" type="vType_car_30.102981630700008" route="route_west_to_south" depart="12.64" /><vehicle id="veh934" type="vType_car_10.541551392042896" route="route_east_to_north" depart="15.51" /><vehicle id="veh937" type="vType_car_17.85738182933678" route="route_south_to_north" depart="24.25" /><vehicle id="veh938" type="vType_car_15.380300828143445" route="route_south_to_north" depart="26.35" /><vehicle id="veh940" type="vType_car_23.570851226832357" route="route_north_to_south" depart="26.92" /><vehicle id="veh944" type="vType_car_22.14931333441673" route="route_south_to_north" depart="28.62" /><vehicle id="veh945" type="vType_car_18.408571249181687" route="route_south_to_north" depart="28.65" /><vehicle id="veh952" type="vType_car_37.22234397845627" route="route_south_to_west" depart="32.39" /><vehicle id="veh953" type="vType_car_22.02139434851699" route="route_south_to_north" depart="32.52" /><vehicle id="veh958" type="vType_car_21.257798380137764" route="route_south_to_north" depart="33.89" /><vehicle id="veh960" type="vType_car_27.858053797301352" route="route_south_to_north" depart="34.62" /><vehicle id="veh962" type="vType_car_28.688905429116566" route="route_south_to_north" depart="36.09" /><vehicle id="veh964" type="vType_car_19.249773159719414" route="route_south_to_north" depart="37.39" /><vehicle id="veh967" type="vType_car_17.51538425665755" route="route_south_to_north" depart="38.66" /><vehicle id="veh968" type="vType_car_46.78133632381304" route="route_south_to_west" depart="38.76" /><vehicle id="veh969" type="vType_car_27.450939500127884" route="route_south_to_north" depart="38.96" /><vehicle id="veh977" type="vType_car_17.931755031981204" route="route_south_to_north" depart="43.56" /><vehicle id="veh980" type="vType_car_28.407189993236692" route="route_south_to_north" depart="44.49" /><vehicle id="veh981" type="vType_car_27.982724820407046" route="route_south_to_north" depart="45.90" /><vehicle id="veh982" type="vType_car_36.4137444384726" route="route_south_to_west" depart="46.56" /><vehicle id="veh983" type="vType_car_21.33589827362678" route="route_south_to_north" depart="46.96" /><vehicle id="veh984" type="vType_car_28.597547098096168" route="route_south_to_north" depart="47.13" /><vehicle id="veh988" type="vType_car_20.42374702659804" route="route_south_to_north" depart="50.00" /><vehicle id="veh990" type="vType_car_26.599949656609205" route="route_south_to_north" depart="51.33" /><vehicle id="veh994" type="vType_car_21.035253685286925" route="route_north_to_west" depart="52.50" /><vehicle id="veh995" type="vType_car_26.35911678481328" route="route_south_to_north" depart="52.53" /><vehicle id="veh1002" type="vType_car_27.1638785829767" route="route_north_to_south" depart="56.54" /><vehicle id="veh1005" type="vType_car_40.83823310400356" route="route_south_to_north" depart="58.10" /></routes>