<?xml version='1.0' encoding='utf-8'?>
<routes><vType id="vType_car_18.823934177423286" accel="1.0" decel="5.0" sigma="0.0" length="4.5" maxSpeed="5.228870604839802" /><vType id="vType_car_31.24717345973886" accel="1.0" decel="5.0" sigma="0.0" length="4.5" maxSpeed="8.679770405483017" /><vType id="vType_car_6.966582793160119" accel="1.0" decel="5.0" sigma="0.0" length="4.5" maxSpeed="1.9351618869889218" /><vType id="vType_car_26.21582508948909" accel="1.0" decel="5.0" sigma="0.0" length="4.5" maxSpeed="7.282173635969191" /><vType id="vType_car_9.174001921514117" accel="1.0" decel="5.0" sigma="0.0" length="4.5" maxSpeed="2.548333867087255" /><vType id="vType_car_9.036256740515134" accel="1.0" decel="5.0" sigma="0.0" length="4.5" maxSpeed="2.5100713168097593" /><vType id="vType_car_15.472390469797459" accel="1.0" decel="5.0" sigma="0.0" length="4.5" maxSpeed="4.297886241610405" /><vType id="vType_car_3.8745168342733516" accel="1.0" decel="5.0" sigma="0.0" length="4.5" maxSpeed="1.0762546761870422" /><vType id="vType_car_39.82746550403712" accel="1.0" decel="5.0" sigma="0.0" length="4.5" maxSpeed="11.063184862232534" /><vType id="vType_car_32.66523418303159" accel="1.0" decel="5.0" sigma="0.0" length="4.5" maxSpeed="9.07367616195322" /><vType id="vType_car_20.18228058343795" accel="1.0" decel="5.0" sigma="0.0" length="4.5" maxSpeed="5.6061890509549865" /><vType id="vType_car_23.19627810987758" accel="1.0" decel="5.0" sigma="0.0" length="4.5" maxSpeed="6.443410586077105" /><vType id="vType_car_36.4723392436088" accel="1.0" decel="5.0" sigma="0.0" length="4.5" maxSpeed="10.131205345446888" /><vType id="vType_car_10.92677668172567" accel="1.0" decel="5.0" sigma="0.0" length="4.5" maxSpeed="3.0352157449237973" /><vType id="vType_car_34.839751276676125" accel="1.0" decel="5.0" sigma="0.0" length="4.5" maxSpeed="9.67770868796559" /><vType id="vType_car_40.03614521423498" accel="1.0" decel="5.0" sigma="0.0" length="4.5" maxSpeed="11.121151448398605" /><vType id="vType_car_11.093709013539172" accel="1.0" decel="5.0" sigma="0.0" length="4.5" maxSpeed="3.0815858370942144" /><vType id="vType_car_13.770538432606665" accel="1.0" decel="5.0" sigma="0.0" length="4.5" maxSpeed="3.8251495646129623" /><vType id="vType_car_40.396135198913775" accel="1.0" decel="5.0" sigma="0.0" length="4.5" maxSpeed="11.221148666364938" /><vType id="vType_car_14.567160855880644" accel="1.0" decel="5.0" sigma="0.0" length="4.5" maxSpeed="4.046433571077957" /><vType id="vType_car_11.986418965365063" accel="1.0" decel="5.0" sigma="0.0" length="4.5" maxSpeed="3.3295608237125176" /><vType id="vType_car_47.47315011139784" accel="1.0" decel="5.0" sigma="0.0" length="4.5" maxSpeed="13.186986142054955" /><vType id="vType_car_46.99143916414873" accel="1.0" decel="5.0" sigma="0.0" length="4.5" maxSpeed="13.053177545596869" /><vType id="vType_car_11.155304760247404" accel="1.0" decel="5.0" sigma="0.0" length="4.5" maxSpeed="3.09869576673539" /><vType id="vType_car_56.44703713936694" accel="1.0" decel="5.0" sigma="0.0" length="4.5" maxSpeed="15.679732538713038" /><vType id="vType_car_20.985670738016456" accel="1.0" decel="5.0" sigma="0.0" length="4.5" maxSpeed="5.829352982782349" /><vType id="vType_car_37.96928164626621" accel="1.0" decel="5.0" sigma="0.0" length="4.5" maxSpeed="10.547022679518392" /><vType id="vType_car_106.27209130364092" accel="1.0" decel="5.0" sigma="0.0" length="4.5" maxSpeed="29.520025362122478" /><vType id="vType_car_43.86749790580235" accel="1.0" decel="5.0" sigma="0.0" length="4.5" maxSpeed="12.185416084945098" /><vType id="vType_car_15.863678027087264" accel="1.0" decel="5.0" sigma="0.0" length="4.5" maxSpeed="4.406577229746462" /><vType id="vType_car_10.205809023818032" accel="1.0" decel="5.0" sigma="0.0" length="4.5" maxSpeed="2.8349469510605645" /><vType id="vType_car_11.86462209056395" accel="1.0" decel="5.0" sigma="0.0" length="4.5" maxSpeed="3.295728358489986" /><vType id="vType_car_8.851800296407303" accel="1.0" decel="5.0" sigma="0.0" length="4.5" maxSpeed="2.4588334156686953" /><vType id="vType_car_33.848729903597665" accel="1.0" decel="5.0" sigma="0.0" length="4.5" maxSpeed="9.402424973221573" /><vType id="vType_car_39.839806607358" accel="1.0" decel="5.0" sigma="0.0" length="4.5" maxSpeed="11.066612946488332" /><vType id="vType_car_37.62309625753335" accel="1.0" decel="5.0" sigma="0.0" length="4.5" maxSpeed="10.450860071537042" /><vType id="vType_car_19.92159384469586" accel="1.0" decel="5.0" sigma="0.0" length="4.5" maxSpeed="5.533776067971072" /><vType id="vType_car_41.56563859815525" accel="1.0" decel="5.0" sigma="0.0" length="4.5" maxSpeed="11.546010721709793" /><vType id="vType_car_65.60104194866463" accel="1.0" decel="5.0" sigma="0.0" length="4.5" maxSpeed="18.22251165240684" /><vType id="vType_car_12.978966645683208" accel="1.0" decel="5.0" sigma="0.0" length="4.5" maxSpeed="3.60526851268978" /><vType id="vType_car_15.42145683620272" accel="1.0" decel="5.0" sigma="0.0" length="4.5" maxSpeed="4.283738010056311" /><vType id="vType_car_49.50210208677381" accel="1.0" decel="5.0" sigma="0.0" length="4.5" maxSpeed="13.750583912992724" /><vType id="vType_car_21.68993764006225" accel="1.0" decel="5.0" sigma="0.0" length="4.5" maxSpeed="6.0249826777950695" /><vType id="vType_truck_3.4832913965800594" accel="1.0" decel="5.0" sigma="0.0" length="8" maxSpeed="0.9675809434944609" /><vType id="vType_car_12.905293726317767" accel="1.0" decel="5.0" sigma="0.0" length="4.5" maxSpeed="3.5848038128660464" /><vType id="vType_car_19.659988505374205" accel="1.0" decel="5.0" sigma="0.0" length="4.5" maxSpeed="5.4611079181595015" /><vType id="vType_car_52.0198756582104" accel="1.0" decel="5.0" sigma="0.0" length="4.5" maxSpeed="14.449965460614001" /><vType id="vType_car_5.936720014295532" accel="1.0" decel="5.0" sigma="0.0" length="4.5" maxSpeed="1.64908889285987" /><vType id="vType_car_11.959829099214554" accel="1.0" decel="5.0" sigma="0.0" length="4.5" maxSpeed="3.3221747497818206" /><vType id="vType_car_23.27007055108568" accel="1.0" decel="5.0" sigma="0.0" length="4.5" maxSpeed="6.463908486412689" /><vType id="vType_car_22.96670345090781" accel="1.0" decel="5.0" sigma="0.0" length="4.5" maxSpeed="6.379639847474392" /><vType id="vType_car_38.00239982619701" accel="1.0" decel="5.0" sigma="0.0" length="4.5" maxSpeed="10.556222173943615" /><vType id="vType_car_5.360241380468909" accel="1.0" decel="5.0" sigma="0.0" length="4.5" maxSpeed="1.4889559390191414" /><vType id="vType_car_6.4500008876844594" accel="1.0" decel="5.0" sigma="0.0" length="4.5" maxSpeed="1.791666913245683" /><vType id="vType_car_5.945010101819296" accel="1.0" decel="5.0" sigma="0.0" length="4.5" maxSpeed="1.6513916949498044" /><vType id="vType_car_6.03576263890471" accel="1.0" decel="5.0" sigma="0.0" length="4.5" maxSpeed="1.676600733029086" /><vType id="vType_car_6.357497141467116" accel="1.0" decel="5.0" sigma="0.0" length="4.5" maxSpeed="1.7659714281853098" /><vType id="vType_car_4.294329685711564" accel="1.0" decel="5.0" sigma="0.0" length="4.5" maxSpeed="1.1928693571421012" /><vType id="vType_car_4.908681285151001" accel="1.0" decel="5.0" sigma="0.0" length="4.5" maxSpeed="1.3635225792086114" /><vType id="vType_car_36.41027273896901" accel="1.0" decel="5.0" sigma="0.0" length="4.5" maxSpeed="10.113964649713614" /><vType id="vType_car_5.848250694531674" accel="1.0" decel="5.0" sigma="0.0" length="4.5" maxSpeed="1.624514081814354" /><vType id="vType_car_4.180957442766219" accel="1.0" decel="5.0" sigma="0.0" length="4.5" maxSpeed="1.1613770674350608" /><vType id="vType_car_2.8704901323669008" accel="1.0" decel="5.0" sigma="0.0" length="4.5" maxSpeed="0.7973583701019169" /><vType id="vType_car_3.4832913965800594" accel="1.0" decel="5.0" sigma="0.0" length="4.5" maxSpeed="0.9675809434944609" /><vType id="vType_car_18.264576704124696" accel="1.0" decel="5.0" sigma="0.0" length="4.5" maxSpeed="5.073493528923526" /><vType id="vType_car_15.889217667902567" accel="1.0" decel="5.0" sigma="0.0" length="4.5" maxSpeed="4.413671574417379" /><route id="route_north_to_east" edges="north_to_center center_to_east" /><route id="route_north_to_south" edges="north_to_center center_to_south" /><route id="route_north_to_west" edges="north_to_center center_to_west" /><route id="route_east_to_west" edges="east_to_center center_to_west" /><route id="route_east_to_south" edges="east_to_center center_to_south" /><route id="route_east_to_north" edges="east_to_center center_to_north" /><route id="route_south_to_west" edges="south_to_center center_to_west" /><route id="route_south_to_north" edges="south_to_center center_to_north" /><route id="route_south_to_east" edges="south_to_center center_to_east" /><route id="route_west_to_south" edges="west_to_center center_to_south" /><route id="route_west_to_north" edges="west_to_center center_to_north" /><route id="route_west_to_east" edges="west_to_center center_to_east" /><vehicle id="veh1025" type="vType_car_31.24717345973886" route="route_west_to_east" depart="0.04" /><vehicle id="veh1118" type="vType_car_26.21582508948909" route="route_east_to_west" depart="0.04" /><vehicle id="veh1115" type="vType_car_9.036256740515134" route="route_east_to_south" depart="0.04" /><vehicle id="veh1119" type="vType_car_39.82746550403712" route="route_west_to_south" depart="0.04" /><vehicle id="veh1090" type="vType_car_32.66523418303159" route="route_west_to_east" depart="0.04" /><vehicle id="veh1121" type="vType_car_20.18228058343795" route="route_east_to_west" depart="0.04" /><vehicle id="veh1122" type="vType_car_23.19627810987758" route="route_west_to_east" depart="0.22" /><vehicle id="veh1126" type="vType_car_36.4723392436088" route="route_west_to_south" depart="0.90" /><vehicle id="veh1128" type="vType_car_34.839751276676125" route="route_west_to_east" depart="3.00" /><vehicle id="veh1129" type="vType_car_40.03614521423498" route="route_west_to_east" depart="4.05" /><vehicle id="veh1132" type="vType_car_40.396135198913775" route="route_west_to_east" depart="7.42" /><vehicle id="veh1133" type="vType_car_14.567160855880644" route="route_south_to_north" depart="7.63" /><vehicle id="veh1136" type="vType_car_47.47315011139784" route="route_west_to_east" depart="9.30" /><vehicle id="veh1148" type="vType_car_37.96928164626621" route="route_west_to_east" depart="13.71" /><vehicle id="veh1151" type="vType_car_43.86749790580235" route="route_west_to_east" depart="14.11" /><vehicle id="veh1158" type="vType_car_33.848729903597665" route="route_west_to_east" depart="14.65" /><vehicle id="veh1159" type="vType_car_39.839806607358" route="route_west_to_east" depart="14.72" /><vehicle id="veh1161" type="vType_car_37.62309625753335" route="route_west_to_east" depart="15.37" /><vehicle id="veh1164" type="vType_car_41.56563859815525" route="route_east_to_west" depart="18.70" /><vehicle id="veh1165" type="vType_car_65.60104194866463" route="route_west_to_south" depart="19.21" /><vehicle id="veh1166" type="vType_car_12.978966645683208" route="route_east_to_south" depart="27.49" /><vehicle id="veh1168" type="vType_car_15.42145683620272" route="route_south_to_east" depart="34.73" /><vehicle id="veh1169" type="vType_car_49.50210208677381" route="route_east_to_west" depart="36.10" /><vehicle id="veh1170" type="vType_car_21.68993764006225" route="route_south_to_east" depart="37.44" /><vehicle id="veh1173" type="vType_car_12.905293726317767" route="route_east_to_north" depart="40.62" /><vehicle id="veh1175" type="vType_car_19.659988505374205" route="route_east_to_south" depart="41.27" /><vehicle id="veh1177" type="vType_car_52.0198756582104" route="route_east_to_west" depart="41.38" /><vehicle id="veh1184" type="vType_car_23.27007055108568" route="route_east_to_south" depart="45.29" /><vehicle id="veh1185" type="vType_car_22.96670345090781" route="route_east_to_south" depart="46.19" /><vehicle id="veh1188" type="vType_car_38.00239982619701" route="route_east_to_west" depart="46.77" /></routes>