<?xml version='1.0' encoding='utf-8'?>
<routes><vType id="vType_car_20.343104938145444" accel="1.0" decel="5.0" sigma="0.0" length="4.5" maxSpeed="5.650862482818179" /><vType id="vType_car_28.49659775556899" accel="1.0" decel="5.0" sigma="0.0" length="4.5" maxSpeed="7.9157215987691645" /><vType id="vType_car_53.135637412640236" accel="1.0" decel="5.0" sigma="0.0" length="4.5" maxSpeed="14.759899281288954" /><vType id="vType_car_27.83075271719945" accel="1.0" decel="5.0" sigma="0.0" length="4.5" maxSpeed="7.730764643666514" /><vType id="vType_car_54.98173218439583" accel="1.0" decel="5.0" sigma="0.0" length="4.5" maxSpeed="15.272703384554397" /><vType id="vType_car_16.511611187964323" accel="1.0" decel="5.0" sigma="0.0" length="4.5" maxSpeed="4.586558663323423" /><vType id="vType_car_56.428987132596504" accel="1.0" decel="5.0" sigma="0.0" length="4.5" maxSpeed="15.674718647943473" /><vType id="vType_car_51.250239378823316" accel="1.0" decel="5.0" sigma="0.0" length="4.5" maxSpeed="14.236177605228699" /><vType id="vType_car_9.776662741968803" accel="1.0" decel="5.0" sigma="0.0" length="4.5" maxSpeed="2.71573965054689" /><vType id="vType_car_27.594376971529243" accel="1.0" decel="5.0" sigma="0.0" length="4.5" maxSpeed="7.665104714313679" /><vType id="vType_car_15.04768978017147" accel="1.0" decel="5.0" sigma="0.0" length="4.5" maxSpeed="4.179913827825408" /><vType id="vType_car_29.143015598532553" accel="1.0" decel="5.0" sigma="0.0" length="4.5" maxSpeed="8.095282110703486" /><vType id="vType_car_17.279253043833037" accel="1.0" decel="5.0" sigma="0.0" length="4.5" maxSpeed="4.799792512175844" /><vType id="vType_car_1.0885285614312685" accel="1.0" decel="5.0" sigma="0.0" length="4.5" maxSpeed="0.30236904484201904" /><vType id="vType_car_19.96125024169349" accel="1.0" decel="5.0" sigma="0.0" length="4.5" maxSpeed="5.544791733803748" /><vType id="vType_car_31.447825719445355" accel="1.0" decel="5.0" sigma="0.0" length="4.5" maxSpeed="8.735507144290375" /><vType id="vType_car_19.906426001772147" accel="1.0" decel="5.0" sigma="0.0" length="4.5" maxSpeed="5.529562778270041" /><vType id="vType_car_23.54486703682437" accel="1.0" decel="5.0" sigma="0.0" length="4.5" maxSpeed="6.540240843562325" /><vType id="vType_car_34.914478080226736" accel="1.0" decel="5.0" sigma="0.0" length="4.5" maxSpeed="9.698466133396316" /><vType id="vType_car_6.643421615839724" accel="1.0" decel="5.0" sigma="0.0" length="4.5" maxSpeed="1.8453948932888122" /><vType id="vType_car_51.91167039543238" accel="1.0" decel="5.0" sigma="0.0" length="4.5" maxSpeed="14.419908443175661" /><vType id="vType_car_16.185509806994606" accel="1.0" decel="5.0" sigma="0.0" length="4.5" maxSpeed="4.49597494638739" /><vType id="vType_car_51.67454812989907" accel="1.0" decel="5.0" sigma="0.0" length="4.5" maxSpeed="14.354041147194186" /><vType id="vType_car_15.899968928262163" accel="1.0" decel="5.0" sigma="0.0" length="4.5" maxSpeed="4.416658035628378" /><vType id="vType_car_33.8039557037268" accel="1.0" decel="5.0" sigma="0.0" length="4.5" maxSpeed="9.389987695479666" /><vType id="vType_car_6.685556703432701" accel="1.0" decel="5.0" sigma="0.0" length="4.5" maxSpeed="1.8570990842868613" /><vType id="vType_truck_88.90340175589157" accel="1.0" decel="5.0" sigma="0.0" length="8" maxSpeed="24.695389376636545" /><vType id="vType_car_15.503289739472024" accel="1.0" decel="5.0" sigma="0.0" length="4.5" maxSpeed="4.306469372075562" /><vType id="vType_car_45.14492847280536" accel="1.0" decel="5.0" sigma="0.0" length="4.5" maxSpeed="12.5402579091126" /><vType id="vType_car_26.666473771790617" accel="1.0" decel="5.0" sigma="0.0" length="4.5" maxSpeed="7.407353825497394" /><vType id="vType_car_10.662616086822897" accel="1.0" decel="5.0" sigma="0.0" length="4.5" maxSpeed="2.9618378018952494" /><vType id="vType_car_19.39564168931477" accel="1.0" decel="5.0" sigma="0.0" length="4.5" maxSpeed="5.38767824703188" /><vType id="vType_car_27.42420542836172" accel="1.0" decel="5.0" sigma="0.0" length="4.5" maxSpeed="7.617834841211589" /><vType id="vType_car_9.112513180658363" accel="1.0" decel="5.0" sigma="0.0" length="4.5" maxSpeed="2.5312536612939898" /><vType id="vType_car_82.4923926519738" accel="1.0" decel="5.0" sigma="0.0" length="4.5" maxSpeed="22.914553514437166" /><vType id="vType_car_25.244484183735874" accel="1.0" decel="5.0" sigma="0.0" length="4.5" maxSpeed="7.012356717704409" /><vType id="vType_car_21.31490998058943" accel="1.0" decel="5.0" sigma="0.0" length="4.5" maxSpeed="5.920808327941509" /><route id="route_north_to_east" edges="north_to_center center_to_east" /><route id="route_north_to_south" edges="north_to_center center_to_south" /><route id="route_north_to_west" edges="north_to_center center_to_west" /><route id="route_east_to_west" edges="east_to_center center_to_west" /><route id="route_east_to_south" edges="east_to_center center_to_south" /><route id="route_east_to_north" edges="east_to_center center_to_north" /><route id="route_south_to_west" edges="south_to_center center_to_west" /><route id="route_south_to_north" edges="south_to_center center_to_north" /><route id="route_south_to_east" edges="south_to_center center_to_east" /><route id="route_west_to_south" edges="west_to_center center_to_south" /><route id="route_west_to_north" edges="west_to_center center_to_north" /><route id="route_west_to_east" edges="west_to_center center_to_east" /><vehicle id="veh776" type="vType_car_20.343104938145444" route="route_south_to_north" depart="0.04" /><vehicle id="veh824" type="vType_car_28.49659775556899" route="route_east_to_south" depart="0.04" /><vehicle id="veh843" type="vType_car_16.511611187964323" route="route_north_to_west" depart="2.60" /><vehicle id="veh844" type="vType_car_56.428987132596504" route="route_east_to_west" depart="4.56" /><vehicle id="veh845" type="vType_car_51.250239378823316" route="route_east_to_west" depart="4.56" /><vehicle id="veh847" type="vType_car_9.776662741968803" route="route_north_to_east" depart="7.52" /><vehicle id="veh850" type="vType_car_27.594376971529243" route="route_east_to_south" depart="10.42" /><vehicle id="veh854" type="vType_car_15.04768978017147" route="route_south_to_east" depart="11.50" /><vehicle id="veh855" type="vType_car_29.143015598532553" route="route_south_to_west" depart="12.01" /><vehicle id="veh857" type="vType_car_17.279253043833037" route="route_south_to_east" depart="15.41" /><vehicle id="veh861" type="vType_car_19.96125024169349" route="route_east_to_west" depart="16.24" /><vehicle id="veh864" type="vType_car_31.447825719445355" route="route_south_to_north" depart="19.06" /><vehicle id="veh865" type="vType_car_19.906426001772147" route="route_east_to_west" depart="19.28" /><vehicle id="veh867" type="vType_car_23.54486703682437" route="route_east_to_west" depart="22.68" /><vehicle id="veh870" type="vType_car_34.914478080226736" route="route_south_to_north" depart="22.82" /><vehicle id="veh876" type="vType_car_51.91167039543238" route="route_west_to_east" depart="40.01" /><vehicle id="veh877" type="vType_car_16.185509806994606" route="route_west_to_north" depart="40.01" /><vehicle id="veh878" type="vType_car_51.67454812989907" route="route_west_to_east" depart="40.84" /><vehicle id="veh879" type="vType_car_15.899968928262163" route="route_west_to_north" depart="41.42" /><vehicle id="veh881" type="vType_car_33.8039557037268" route="route_east_to_west" depart="42.18" /><vehicle id="veh887" type="vType_car_45.14492847280536" route="route_east_to_west" depart="53.17" /></routes>