<?xml version="1.0" encoding="utf-8"?>
<routes>
	<vType id="vType_car_20.679054093099936" accel="1.0" decel="5.0" sigma="0.0" length="4.5" maxSpeed="5.74418169252776" />
	<vType id="vType_car_10.888976432274127" accel="1.0" decel="5.0" sigma="0.0" length="4.5" maxSpeed="3.0247156756317017" />
	<vType id="vType_car_14.997717306062922" accel="1.0" decel="5.0" sigma="0.0" length="4.5" maxSpeed="4.166032585017478" />
	<vType id="vType_car_18.252749359519868" accel="1.0" decel="5.0" sigma="0.0" length="4.5" maxSpeed="5.070208155422185" />
	<vType id="vType_car_18.404673402006956" accel="1.0" decel="5.0" sigma="0.0" length="4.5" maxSpeed="5.1124092783352655" />
	<vType id="vType_car_19.903171682906613" accel="1.0" decel="5.0" sigma="0.0" length="4.5" maxSpeed="5.528658800807393" />
	<vType id="vType_car_16.5003038111799" accel="1.0" decel="5.0" sigma="0.0" length="4.5" maxSpeed="4.58341772532775" />
	<vType id="vType_car_22.81729450102117" accel="1.0" decel="5.0" sigma="0.0" length="4.5" maxSpeed="6.338137361394769" />
	<vType id="vType_car_13.921746689230696" accel="1.0" decel="5.0" sigma="0.0" length="4.5" maxSpeed="3.867151858119638" />
	<vType id="vType_car_12.47357655275488" accel="1.0" decel="5.0" sigma="0.0" length="4.5" maxSpeed="3.464882375765244" />
	<vType id="vType_car_13.218284081617634" accel="1.0" decel="5.0" sigma="0.0" length="4.5" maxSpeed="3.6717455782271204" />
	<vType id="vType_car_18.80855564839889" accel="1.0" decel="5.0" sigma="0.0" length="4.5" maxSpeed="5.224598791221914" />
	<vType id="vType_car_27.386023788541532" accel="1.0" decel="5.0" sigma="0.0" length="4.5" maxSpeed="7.607228830150426" />
	<vType id="vType_car_22.62835725383958" accel="1.0" decel="5.0" sigma="0.0" length="4.5" maxSpeed="6.285654792733217" />
	<vType id="vType_car_26.16187200498803" accel="1.0" decel="5.0" sigma="0.0" length="4.5" maxSpeed="7.26718666805223" />
	<vType id="vType_car_43.94288668147423" accel="1.0" decel="5.0" sigma="0.0" length="4.5" maxSpeed="12.206357411520619" />
	<vType id="vType_car_18.10428187186567" accel="1.0" decel="5.0" sigma="0.0" length="4.5" maxSpeed="5.028967186629353" />
	<vType id="vType_car_3.982596005123101" accel="1.0" decel="5.0" sigma="0.0" length="4.5" maxSpeed="1.1062766680897502" />
	<vType id="vType_car_5.914580304831205" accel="1.0" decel="5.0" sigma="0.0" length="4.5" maxSpeed="1.6429389735642235" />
	<vType id="vType_car_3.851351095867581" accel="1.0" decel="5.0" sigma="0.0" length="4.5" maxSpeed="1.069819748852106" />
	<vType id="vType_car_9.899268408045724" accel="1.0" decel="5.0" sigma="0.0" length="4.5" maxSpeed="2.749796780012701" />
	<vType id="vType_car_4.709936577477395" accel="1.0" decel="5.0" sigma="0.0" length="4.5" maxSpeed="1.3083157159659429" />
	<vType id="vType_car_10.90139334661255" accel="1.0" decel="5.0" sigma="0.0" length="4.5" maxSpeed="3.028164818503486" />
	<vType id="vType_car_36.422383020334166" accel="1.0" decel="5.0" sigma="0.0" length="4.5" maxSpeed="10.11732861675949" />
	<vType id="vType_car_1.1745773764682628" accel="1.0" decel="5.0" sigma="0.0" length="4.5" maxSpeed="0.32627149346340634" />
	<vType id="vType_car_4.967006194097327" accel="1.0" decel="5.0" sigma="0.0" length="4.5" maxSpeed="1.3797239428048131" />
	<vType id="vType_car_3.766995069099671" accel="1.0" decel="5.0" sigma="0.0" length="4.5" maxSpeed="1.046387519194353" />
	<vType id="vType_car_18.97587825303979" accel="1.0" decel="5.0" sigma="0.0" length="4.5" maxSpeed="5.271077292511053" />
	<vType id="vType_car_39.396522879245964" accel="1.0" decel="5.0" sigma="0.0" length="4.5" maxSpeed="10.943478577568323" />
	<vType id="vType_car_39.48693890134539" accel="1.0" decel="5.0" sigma="0.0" length="4.5" maxSpeed="10.968594139262608" />
	<vType id="vType_car_4.5131640019758095" accel="1.0" decel="5.0" sigma="0.0" length="4.5" maxSpeed="1.2536566672155025" />
	<vType id="vType_bus_36.889928082412446" accel="1.0" decel="5.0" sigma="0.0" length="13" maxSpeed="10.247202245114568" />
	<vType id="vType_car_24.06511639091726" accel="1.0" decel="5.0" sigma="0.0" length="4.5" maxSpeed="6.6847545530325725" />
	<vType id="vType_car_30.16031952159422" accel="1.0" decel="5.0" sigma="0.0" length="4.5" maxSpeed="8.377866533776173" />
	<vType id="vType_car_12.183162176606137" accel="1.0" decel="5.0" sigma="0.0" length="4.5" maxSpeed="3.384211715723927" />
	<vType id="vType_car_11.149875692947026" accel="1.0" decel="5.0" sigma="0.0" length="4.5" maxSpeed="3.097187692485285" />
	<vType id="vType_car_18.86456584367963" accel="1.0" decel="5.0" sigma="0.0" length="4.5" maxSpeed="5.2401571787998975" />
	<vType id="vType_car_4.94492733156739" accel="1.0" decel="5.0" sigma="0.0" length="4.5" maxSpeed="1.3735909254353862" />
	<vType id="vType_car_5.213320733415843" accel="1.0" decel="5.0" sigma="0.0" length="4.5" maxSpeed="1.4481446481710676" />
	<vType id="vType_car_7.474964651361116" accel="1.0" decel="5.0" sigma="0.0" length="4.5" maxSpeed="2.0763790698225324" />
	<vType id="vType_car_18.866124528605646" accel="1.0" decel="5.0" sigma="0.0" length="4.5" maxSpeed="5.240590146834902" />
	<vType id="vType_car_50.819987494275495" accel="1.0" decel="5.0" sigma="0.0" length="4.5" maxSpeed="14.116663192854304" />
	<vType id="vType_car_57.362203163292946" accel="1.0" decel="5.0" sigma="0.0" length="4.5" maxSpeed="15.933945323136928" />
	<vType id="vType_car_17.796589234343816" accel="1.0" decel="5.0" sigma="0.0" length="4.5" maxSpeed="4.943497009539949" />
	<vType id="vType_car_11.143019393234315" accel="1.0" decel="5.0" sigma="0.0" length="4.5" maxSpeed="3.09528316478731" />
	<vType id="vType_car_7.8793045758491935" accel="1.0" decel="5.0" sigma="0.0" length="4.5" maxSpeed="2.188695715513665" />
	<vType id="vType_car_41.67981173296994" accel="1.0" decel="5.0" sigma="0.0" length="4.5" maxSpeed="11.577725481380538" />
	<vType id="vType_car_24.032707551254624" accel="1.0" decel="5.0" sigma="0.0" length="4.5" maxSpeed="6.6757520975707285" />
	<vType id="vType_car_13.739702437591909" accel="1.0" decel="5.0" sigma="0.0" length="4.5" maxSpeed="3.8165840104421966" />
	<vType id="vType_bus_41.46286163080263" accel="1.0" decel="5.0" sigma="0.0" length="13" maxSpeed="11.51746156411184" />
	<vType id="vType_car_67.05923574516089" accel="1.0" decel="5.0" sigma="0.0" length="4.5" maxSpeed="18.627565484766915" />
	<vType id="vType_car_42.69540811699039" accel="1.0" decel="5.0" sigma="0.0" length="4.5" maxSpeed="11.859835588052887" />
	<vType id="vType_car_3.978794458677551" accel="1.0" decel="5.0" sigma="0.0" length="4.5" maxSpeed="1.1052206829659865" />
	<vType id="vType_car_41.58109666224363" accel="1.0" decel="5.0" sigma="0.0" length="4.5" maxSpeed="11.550304628401008" />
	<vType id="vType_car_47.78160447420862" accel="1.0" decel="5.0" sigma="0.0" length="4.5" maxSpeed="13.272667909502394" />
	<vType id="vType_car_20.473207161148665" accel="1.0" decel="5.0" sigma="0.0" length="4.5" maxSpeed="5.687001989207962" />
	<vType id="vType_car_8.86858960439765" accel="1.0" decel="5.0" sigma="0.0" length="4.5" maxSpeed="2.4634971123326808" />
	<vType id="vType_car_5.081658933227534" accel="1.0" decel="5.0" sigma="0.0" length="4.5" maxSpeed="1.4115719258965373" />
	<vType id="vType_car_34.21439094329442" accel="1.0" decel="5.0" sigma="0.0" length="4.5" maxSpeed="9.50399748424845" />
	<vType id="vType_car_20.36680910271155" accel="1.0" decel="5.0" sigma="0.0" length="4.5" maxSpeed="5.65744697297543" />
	<vType id="vType_car_47.289597273095914" accel="1.0" decel="5.0" sigma="0.0" length="4.5" maxSpeed="13.135999242526642" />
	<vType id="vType_car_42.81548497156765" accel="1.0" decel="5.0" sigma="0.0" length="4.5" maxSpeed="11.893190269879902" />
	<vType id="vType_car_27.904558135281555" accel="1.0" decel="5.0" sigma="0.0" length="4.5" maxSpeed="7.751266148689321" />
	<vType id="vType_car_39.56626971710455" accel="1.0" decel="5.0" sigma="0.0" length="4.5" maxSpeed="10.990630476973484" />
	<vType id="vType_car_43.01139199701593" accel="1.0" decel="5.0" sigma="0.0" length="4.5" maxSpeed="11.94760888805998" />
	<vType id="vType_car_41.84799499353901" accel="1.0" decel="5.0" sigma="0.0" length="4.5" maxSpeed="11.624443053760837" />
	<vType id="vType_car_49.98188239586789" accel="1.0" decel="5.0" sigma="0.0" length="4.5" maxSpeed="13.883856221074414" />
	<vType id="vType_car_48.618385950389055" accel="1.0" decel="5.0" sigma="0.0" length="4.5" maxSpeed="13.505107208441403" />
	<vType id="vType_car_48.229929056318" accel="1.0" decel="5.0" sigma="0.0" length="4.5" maxSpeed="13.397202515643889" />
	<vType id="vType_car_49.86732013526048" accel="1.0" decel="5.0" sigma="0.0" length="4.5" maxSpeed="13.852033370905687" />
	<vType id="vType_car_4.545776406045878" accel="1.0" decel="5.0" sigma="0.0" length="4.5" maxSpeed="1.2627156683460772" />
	<vType id="vType_car_48.72102340165998" accel="1.0" decel="5.0" sigma="0.0" length="4.5" maxSpeed="13.533617611572215" />
	<vType id="vType_car_10.341947284597003" accel="1.0" decel="5.0" sigma="0.0" length="4.5" maxSpeed="2.8727631346102784" />
	<vType id="vType_car_55.38139066359854" accel="1.0" decel="5.0" sigma="0.0" length="4.5" maxSpeed="15.38371962877737" />
	<vType id="vType_car_35.47047934837051" accel="1.0" decel="5.0" sigma="0.0" length="4.5" maxSpeed="9.852910930102919" />
	<vType id="vType_car_84.6053569615308" accel="1.0" decel="5.0" sigma="0.0" length="4.5" maxSpeed="23.501488044869667" />
	<vType id="vType_car_66.87421491445494" accel="1.0" decel="5.0" sigma="0.0" length="4.5" maxSpeed="18.576170809570815" />
	<vType id="vType_car_3.9831112130984763" accel="1.0" decel="5.0" sigma="0.0" length="4.5" maxSpeed="1.1064197814162433" />
	<vType id="vType_car_3.5410669514656936" accel="1.0" decel="5.0" sigma="0.0" length="4.5" maxSpeed="0.9836297087404704" />
	<vType id="vType_car_35.62056371218244" accel="1.0" decel="5.0" sigma="0.0" length="4.5" maxSpeed="9.894601031161788" />
	<vType id="vType_car_41.08333071805895" accel="1.0" decel="5.0" sigma="0.0" length="4.5" maxSpeed="11.412036310571931" />
	<vType id="vType_car_14.552800763671137" accel="1.0" decel="5.0" sigma="0.0" length="4.5" maxSpeed="4.042444656575316" />
	<vType id="vType_car_11.95825858820002" accel="1.0" decel="5.0" sigma="0.0" length="4.5" maxSpeed="3.3217384967222277" />
	<vType id="vType_car_9.993494046245907" accel="1.0" decel="5.0" sigma="0.0" length="4.5" maxSpeed="2.775970568401641" />
	<vType id="vType_car_53.73607671052309" accel="1.0" decel="5.0" sigma="0.0" length="4.5" maxSpeed="14.926687975145303" />
	<vType id="vType_car_8.916368556546727" accel="1.0" decel="5.0" sigma="0.0" length="4.5" maxSpeed="2.476769043485202" />
	<vType id="vType_car_19.133095587674198" accel="1.0" decel="5.0" sigma="0.0" length="4.5" maxSpeed="5.314748774353943" />
	<vType id="vType_car_9.922364369743681" accel="1.0" decel="5.0" sigma="0.0" length="4.5" maxSpeed="2.7562123249288004" />
	<vType id="vType_car_12.354358344360286" accel="1.0" decel="5.0" sigma="0.0" length="4.5" maxSpeed="3.431766206766746" />
	<vType id="vType_car_49.22056747099369" accel="1.0" decel="5.0" sigma="0.0" length="4.5" maxSpeed="13.672379853053803" />
	<vType id="vType_car_25.00944583585495" accel="1.0" decel="5.0" sigma="0.0" length="4.5" maxSpeed="6.947068287737486" />
	<vType id="vType_car_49.30514121247804" accel="1.0" decel="5.0" sigma="0.0" length="4.5" maxSpeed="13.695872559021678" />
	<vType id="vType_car_38.5226089639771" accel="1.0" decel="5.0" sigma="0.0" length="4.5" maxSpeed="10.70072471221586" />
	<vType id="vType_car_3.690611514051661" accel="1.0" decel="5.0" sigma="0.0" length="4.5" maxSpeed="1.0251698650143501" />
	<vType id="vType_car_11.524080675182812" accel="1.0" decel="5.0" sigma="0.0" length="4.5" maxSpeed="3.2011335208841145" />
	<vType id="vType_car_3.6815683981070295" accel="1.0" decel="5.0" sigma="0.0" length="4.5" maxSpeed="1.0226578883630637" />
	<vType id="vType_car_9.601584564624877" accel="1.0" decel="5.0" sigma="0.0" length="4.5" maxSpeed="2.66710682350691" />
	<vType id="vType_car_10.40860049080051" accel="1.0" decel="5.0" sigma="0.0" length="4.5" maxSpeed="2.8912779141112526" />
	<vType id="vType_car_4.010258008794551" accel="1.0" decel="5.0" sigma="0.0" length="4.5" maxSpeed="1.1139605579984864" />
	<vType id="vType_car_28.389343198479004" accel="1.0" decel="5.0" sigma="0.0" length="4.5" maxSpeed="7.885928666244167" />
	<vType id="vType_car_3.7669950690996696" accel="1.0" decel="5.0" sigma="0.0" length="4.5" maxSpeed="1.0463875191943526" />
	<vType id="vType_car_2.214495727862737" accel="1.0" decel="5.0" sigma="0.0" length="4.5" maxSpeed="0.6151377021840936" />
	<vType id="vType_car_13.206043810642093" accel="1.0" decel="5.0" sigma="0.0" length="4.5" maxSpeed="3.6683455029561367" />
	<vType id="vType_car_3.0448889611310044" accel="1.0" decel="5.0" sigma="0.0" length="4.5" maxSpeed="0.8458024892030568" />
	<vType id="vType_car_46.37201016421499" accel="1.0" decel="5.0" sigma="0.0" length="4.5" maxSpeed="12.881113934504164" />
	<vType id="vType_car_16.866104704479856" accel="1.0" decel="5.0" sigma="0.0" length="4.5" maxSpeed="4.685029084577738" />
	<vType id="vType_car_4.795051028717922" accel="1.0" decel="5.0" sigma="0.0" length="4.5" maxSpeed="1.3319586190883117" />
	<vType id="vType_bus_49.26663218523892" accel="1.0" decel="5.0" sigma="0.0" length="13" maxSpeed="13.68517560701081" />
	<vType id="vType_truck_8.787401075636652" accel="1.0" decel="5.0" sigma="0.0" length="8" maxSpeed="2.440944743232403" />
	<vType id="vType_car_19.401342951661253" accel="1.0" decel="5.0" sigma="0.0" length="4.5" maxSpeed="5.389261931017015" />
	<vType id="vType_car_12.543215854680978" accel="1.0" decel="5.0" sigma="0.0" length="4.5" maxSpeed="3.4842266263002717" />
	<vType id="vType_car_19.467111656118135" accel="1.0" decel="5.0" sigma="0.0" length="4.5" maxSpeed="5.407531015588371" />
	<vType id="vType_car_18.20362174468989" accel="1.0" decel="5.0" sigma="0.0" length="4.5" maxSpeed="5.056561595747191" />
	<vType id="vType_car_19.036960983750085" accel="1.0" decel="5.0" sigma="0.0" length="4.5" maxSpeed="5.288044717708357" />
	<vType id="vType_car_18.977138068619674" accel="1.0" decel="5.0" sigma="0.0" length="4.5" maxSpeed="5.271427241283242" />
	<vType id="vType_car_8.993567776368629" accel="1.0" decel="5.0" sigma="0.0" length="4.5" maxSpeed="2.498213271213508" />
	<vType id="vType_car_21.67434725474874" accel="1.0" decel="5.0" sigma="0.0" length="4.5" maxSpeed="6.0206520152079825" />
	<vType id="vType_car_19.28020979398418" accel="1.0" decel="5.0" sigma="0.0" length="4.5" maxSpeed="5.355613831662272" />
	<vType id="vType_car_53.1406192970285" accel="1.0" decel="5.0" sigma="0.0" length="4.5" maxSpeed="14.761283138063472" />
	<vType id="vType_car_46.14978722086161" accel="1.0" decel="5.0" sigma="0.0" length="4.5" maxSpeed="12.819385339128225" />
	<vType id="vType_car_20.03752334997423" accel="1.0" decel="5.0" sigma="0.0" length="4.5" maxSpeed="5.565978708326175" />
	<vType id="vType_car_4.6398731926209456" accel="1.0" decel="5.0" sigma="0.0" length="4.5" maxSpeed="1.2888536646169293" />
	<vType id="vType_car_13.946923362731134" accel="1.0" decel="5.0" sigma="0.0" length="4.5" maxSpeed="3.874145378536426" />
	<vType id="vType_car_13.07538965041972" accel="1.0" decel="5.0" sigma="0.0" length="4.5" maxSpeed="3.6320526806721443" />
	<vType id="vType_car_4.161412659243512" accel="1.0" decel="5.0" sigma="0.0" length="4.5" maxSpeed="1.1559479609009755" />
	<vType id="vType_car_14.807349865984747" accel="1.0" decel="5.0" sigma="0.0" length="4.5" maxSpeed="4.113152740551318" />
	<vType id="vType_car_4.2985738895173515" accel="1.0" decel="5.0" sigma="0.0" length="4.5" maxSpeed="1.1940483026437088" />
	<vType id="vType_car_12.319021895322217" accel="1.0" decel="5.0" sigma="0.0" length="4.5" maxSpeed="3.4219505264783936" />
	<vType id="vType_car_4.4335513454601765" accel="1.0" decel="5.0" sigma="0.0" length="4.5" maxSpeed="1.2315420404056046" />
	<vType id="vType_car_8.382171856733502" accel="1.0" decel="5.0" sigma="0.0" length="4.5" maxSpeed="2.3283810713148614" />
	<vType id="vType_car_16.86367707449546" accel="1.0" decel="5.0" sigma="0.0" length="4.5" maxSpeed="4.6843547429154055" />
	<vType id="vType_car_17.78500894556647" accel="1.0" decel="5.0" sigma="0.0" length="4.5" maxSpeed="4.940280262657353" />
	<vType id="vType_car_2.1571877556232706" accel="1.0" decel="5.0" sigma="0.0" length="4.5" maxSpeed="0.5992188210064641" />
	<vType id="vType_car_23.783783765124408" accel="1.0" decel="5.0" sigma="0.0" length="4.5" maxSpeed="6.606606601423446" />
	<vType id="vType_car_20.761095421363567" accel="1.0" decel="5.0" sigma="0.0" length="4.5" maxSpeed="5.766970950378768" />
	<vType id="vType_car_13.404654429841381" accel="1.0" decel="5.0" sigma="0.0" length="4.5" maxSpeed="3.7235151194003837" />
	<vType id="vType_car_23.611521231448833" accel="1.0" decel="5.0" sigma="0.0" length="4.5" maxSpeed="6.558755897624676" />
	<vType id="vType_truck_27.232606632834713" accel="1.0" decel="5.0" sigma="0.0" length="8" maxSpeed="7.564612953565198" />
	<vType id="vType_car_14.282045136743578" accel="1.0" decel="5.0" sigma="0.0" length="4.5" maxSpeed="3.9672347602065496" />
	<vType id="vType_car_35.05748259495923" accel="1.0" decel="5.0" sigma="0.0" length="4.5" maxSpeed="9.738189609710897" />
	<vType id="vType_car_18.373648260384023" accel="1.0" decel="5.0" sigma="0.0" length="4.5" maxSpeed="5.1037911834400065" />
	<vType id="vType_car_38.40725128240056" accel="1.0" decel="5.0" sigma="0.0" length="4.5" maxSpeed="10.668680911777933" />
	<vType id="vType_car_3.1293249764433546" accel="1.0" decel="5.0" sigma="0.0" length="4.5" maxSpeed="0.8692569379009318" />
	<vType id="vType_car_31.882277657619127" accel="1.0" decel="5.0" sigma="0.0" length="4.5" maxSpeed="8.856188238227535" />
	<vType id="vType_car_44.41054629844229" accel="1.0" decel="5.0" sigma="0.0" length="4.5" maxSpeed="12.336262860678413" />
	<vType id="vType_car_3.5237321294047885" accel="1.0" decel="5.0" sigma="0.0" length="4.5" maxSpeed="0.978814480390219" />
	<vType id="vType_car_15.130449203983547" accel="1.0" decel="5.0" sigma="0.0" length="4.5" maxSpeed="4.202902556662096" />
	<vType id="vType_car_5.692799030057257" accel="1.0" decel="5.0" sigma="0.0" length="4.5" maxSpeed="1.5813330639047936" />
	<vType id="vType_car_39.65287007134409" accel="1.0" decel="5.0" sigma="0.0" length="4.5" maxSpeed="11.014686130928913" />
	<vType id="vType_car_4.854913517993246" accel="1.0" decel="5.0" sigma="0.0" length="4.5" maxSpeed="1.3485870883314572" />
	<vType id="vType_car_3.0539011788174832" accel="1.0" decel="5.0" sigma="0.0" length="4.5" maxSpeed="0.8483058830048564" />
	<vType id="vType_car_7.664513228110616" accel="1.0" decel="5.0" sigma="0.0" length="4.5" maxSpeed="2.1290314522529488" />
	<vType id="vType_car_3.557773162080443" accel="1.0" decel="5.0" sigma="0.0" length="4.5" maxSpeed="0.9882703228001231" />
	<vType id="vType_car_17.492558194904976" accel="1.0" decel="5.0" sigma="0.0" length="4.5" maxSpeed="4.85904394302916" />
	<vType id="vType_car_44.16477113498019" accel="1.0" decel="5.0" sigma="0.0" length="4.5" maxSpeed="12.267991981938941" />
	<vType id="vType_car_14.391455102049115" accel="1.0" decel="5.0" sigma="0.0" length="4.5" maxSpeed="3.997626417235865" />
	<vType id="vType_car_17.724087147638727" accel="1.0" decel="5.0" sigma="0.0" length="4.5" maxSpeed="4.923357541010757" />
	<vType id="vType_car_11.719917455409945" accel="1.0" decel="5.0" sigma="0.0" length="4.5" maxSpeed="3.255532626502762" />
	<vType id="vType_car_19.868730122420512" accel="1.0" decel="5.0" sigma="0.0" length="4.5" maxSpeed="5.519091700672364" />
	<vType id="vType_car_26.674774276876352" accel="1.0" decel="5.0" sigma="0.0" length="4.5" maxSpeed="7.409659521354542" />
	<vType id="vType_car_2.5117025752510656" accel="1.0" decel="5.0" sigma="0.0" length="4.5" maxSpeed="0.6976951597919626" />
	<vType id="vType_car_31.104674226827147" accel="1.0" decel="5.0" sigma="0.0" length="4.5" maxSpeed="8.640187285229763" />
	<vType id="vType_car_26.321001138438113" accel="1.0" decel="5.0" sigma="0.0" length="4.5" maxSpeed="7.3113892051216975" />
	<vType id="vType_car_8.621692377362017" accel="1.0" decel="5.0" sigma="0.0" length="4.5" maxSpeed="2.394914549267227" />
	<vType id="vType_car_34.825642208806144" accel="1.0" decel="5.0" sigma="0.0" length="4.5" maxSpeed="9.673789502446152" />
	<vType id="vType_car_43.73176866548061" accel="1.0" decel="5.0" sigma="0.0" length="4.5" maxSpeed="12.147713518189057" />
	<vType id="vType_car_36.34911654374383" accel="1.0" decel="5.0" sigma="0.0" length="4.5" maxSpeed="10.09697681770662" />
	<vType id="vType_car_15.758609151698387" accel="1.0" decel="5.0" sigma="0.0" length="4.5" maxSpeed="4.37739143102733" />
	<vType id="vType_car_22.90505387070858" accel="1.0" decel="5.0" sigma="0.0" length="4.5" maxSpeed="6.362514964085717" />
	<vType id="vType_car_8.88041299620218" accel="1.0" decel="5.0" sigma="0.0" length="4.5" maxSpeed="2.466781387833939" />
	<vType id="vType_car_9.484672671561048" accel="1.0" decel="5.0" sigma="0.0" length="4.5" maxSpeed="2.634631297655847" />
	<vType id="vType_car_36.10724701306547" accel="1.0" decel="5.0" sigma="0.0" length="4.5" maxSpeed="10.02979083696263" />
	<vType id="vType_car_51.353829323150606" accel="1.0" decel="5.0" sigma="0.0" length="4.5" maxSpeed="14.264952589764057" />
	<vType id="vType_car_37.87031078727642" accel="1.0" decel="5.0" sigma="0.0" length="4.5" maxSpeed="10.519530774243451" />
	<vType id="vType_car_3.95117103206478" accel="1.0" decel="5.0" sigma="0.0" length="4.5" maxSpeed="1.0975475089068834" />
	<vType id="vType_car_42.561378280491745" accel="1.0" decel="5.0" sigma="0.0" length="4.5" maxSpeed="11.822605077914373" />
	<vType id="vType_car_49.000279462486255" accel="1.0" decel="5.0" sigma="0.0" length="4.5" maxSpeed="13.611188739579514" />
	<vType id="vType_car_28.57453452095041" accel="1.0" decel="5.0" sigma="0.0" length="4.5" maxSpeed="7.937370700264003" />
	<vType id="vType_car_14.423976485795725" accel="1.0" decel="5.0" sigma="0.0" length="4.5" maxSpeed="4.006660134943257" />
	<vType id="vType_car_41.540625146401595" accel="1.0" decel="5.0" sigma="0.0" length="4.5" maxSpeed="11.539062540667109" />
	<vType id="vType_car_44.23549767314329" accel="1.0" decel="5.0" sigma="0.0" length="4.5" maxSpeed="12.287638242539803" />
	<vType id="vType_car_3.9870454944693963" accel="1.0" decel="5.0" sigma="0.0" length="4.5" maxSpeed="1.10751263735261" />
	<vType id="vType_car_39.38256405208129" accel="1.0" decel="5.0" sigma="0.0" length="4.5" maxSpeed="10.939601125578136" />
	<vType id="vType_car_6.015387013191827" accel="1.0" decel="5.0" sigma="0.0" length="4.5" maxSpeed="1.6709408369977297" />
	<vType id="vType_car_60.559820078635845" accel="1.0" decel="5.0" sigma="0.0" length="4.5" maxSpeed="16.822172244065513" />
	<vType id="vType_car_29.62462002883228" accel="1.0" decel="5.0" sigma="0.0" length="4.5" maxSpeed="8.229061119120077" />
	<vType id="vType_car_37.746896618150885" accel="1.0" decel="5.0" sigma="0.0" length="4.5" maxSpeed="10.485249060597468" />
	<vType id="vType_car_38.54676947698155" accel="1.0" decel="5.0" sigma="0.0" length="4.5" maxSpeed="10.707435965828209" />
	<vType id="vType_car_19.899391422389805" accel="1.0" decel="5.0" sigma="0.0" length="4.5" maxSpeed="5.527608728441613" />
	<vType id="vType_car_12.290208073412298" accel="1.0" decel="5.0" sigma="0.0" length="4.5" maxSpeed="3.4139466870589716" />
	<vType id="vType_car_2.859392275886562" accel="1.0" decel="5.0" sigma="0.0" length="4.5" maxSpeed="0.7942756321907117" />
	<vType id="vType_car_21.568764895880378" accel="1.0" decel="5.0" sigma="0.0" length="4.5" maxSpeed="5.991323582188993" />
	<vType id="vType_car_10.153013732840444" accel="1.0" decel="5.0" sigma="0.0" length="4.5" maxSpeed="2.8202815924556788" />
	<vType id="vType_truck_83.37725524419832" accel="1.0" decel="5.0" sigma="0.0" length="8" maxSpeed="23.16034867894398" />
	<vType id="vType_car_7.958196730490643" accel="1.0" decel="5.0" sigma="0.0" length="4.5" maxSpeed="2.2106102029140673" />
	<vType id="vType_truck_94.01194990597088" accel="1.0" decel="5.0" sigma="0.0" length="8" maxSpeed="26.114430529436355" />
	<vType id="vType_car_2.7406805450926135" accel="1.0" decel="5.0" sigma="0.0" length="4.5" maxSpeed="0.7613001514146148" />
	<vType id="vType_car_77.81753840911914" accel="1.0" decel="5.0" sigma="0.0" length="4.5" maxSpeed="21.615982891421982" />
	<vType id="vType_car_12.042563701098361" accel="1.0" decel="5.0" sigma="0.0" length="4.5" maxSpeed="3.3451565836384334" />
	<vType id="vType_truck_15.61850191119713" accel="1.0" decel="5.0" sigma="0.0" length="8" maxSpeed="4.338472753110314" />
	<vType id="vType_car_18.135823430322883" accel="1.0" decel="5.0" sigma="0.0" length="4.5" maxSpeed="5.037728730645245" />
	<vType id="vType_car_69.908941275781" accel="1.0" decel="5.0" sigma="0.0" length="4.5" maxSpeed="19.41915035438361" />
	<vType id="vType_car_50.48775612816233" accel="1.0" decel="5.0" sigma="0.0" length="4.5" maxSpeed="14.024376702267315" />
	<vType id="vType_car_62.508898875735625" accel="1.0" decel="5.0" sigma="0.0" length="4.5" maxSpeed="17.363583021037673" />
	<vType id="vType_car_42.36663411619575" accel="1.0" decel="5.0" sigma="0.0" length="4.5" maxSpeed="11.768509476721041" />
	<vType id="vType_car_15.7770769535612" accel="1.0" decel="5.0" sigma="0.0" length="4.5" maxSpeed="4.3825213759892225" />
	<vType id="vType_car_47.744426053278936" accel="1.0" decel="5.0" sigma="0.0" length="4.5" maxSpeed="13.26234057035526" />
	<vType id="vType_car_55.40711737367292" accel="1.0" decel="5.0" sigma="0.0" length="4.5" maxSpeed="15.390865937131366" />
	<vType id="vType_car_15.916665195527095" accel="1.0" decel="5.0" sigma="0.0" length="4.5" maxSpeed="4.421295887646415" />
	<vType id="vType_car_62.180624227225216" accel="1.0" decel="5.0" sigma="0.0" length="4.5" maxSpeed="17.27239561867367" />
	<vType id="vType_car_74.62434738162078" accel="1.0" decel="5.0" sigma="0.0" length="4.5" maxSpeed="20.72898538378355" />
	<vType id="vType_car_48.01346609210343" accel="1.0" decel="5.0" sigma="0.0" length="4.5" maxSpeed="13.337073914473175" />
	<vType id="vType_car_21.63247158507841" accel="1.0" decel="5.0" sigma="0.0" length="4.5" maxSpeed="6.009019884744003" />
	<vType id="vType_car_41.26367493673616" accel="1.0" decel="5.0" sigma="0.0" length="4.5" maxSpeed="11.462131926871155" />
	<vType id="vType_car_57.45943219635725" accel="1.0" decel="5.0" sigma="0.0" length="4.5" maxSpeed="15.960953387877012" />
	<vType id="vType_car_35.08670714376474" accel="1.0" decel="5.0" sigma="0.0" length="4.5" maxSpeed="9.74630753993465" />
	<vType id="vType_car_4.253520948489433" accel="1.0" decel="5.0" sigma="0.0" length="4.5" maxSpeed="1.1815335968026202" />
	<vType id="vType_car_40.96928938310897" accel="1.0" decel="5.0" sigma="0.0" length="4.5" maxSpeed="11.380358161974714" />
	<vType id="vType_car_59.57189173016899" accel="1.0" decel="5.0" sigma="0.0" length="4.5" maxSpeed="16.54774770282472" />
	<vType id="vType_car_12.20714273530206" accel="1.0" decel="5.0" sigma="0.0" length="4.5" maxSpeed="3.39087298202835" />
	<vType id="vType_car_46.43456938893145" accel="1.0" decel="5.0" sigma="0.0" length="4.5" maxSpeed="12.898491496925402" />
	<vType id="vType_car_29.57863461288168" accel="1.0" decel="5.0" sigma="0.0" length="4.5" maxSpeed="8.216287392467132" />
	<vType id="vType_car_39.83796833115553" accel="1.0" decel="5.0" sigma="0.0" length="4.5" maxSpeed="11.06610231420987" />
	<vType id="vType_car_33.554641322321665" accel="1.0" decel="5.0" sigma="0.0" length="4.5" maxSpeed="9.320733700644906" />
	<vType id="vType_car_48.94751941318751" accel="1.0" decel="5.0" sigma="0.0" length="4.5" maxSpeed="13.596533170329863" />
	<vType id="vType_car_12.337170878214014" accel="1.0" decel="5.0" sigma="0.0" length="4.5" maxSpeed="3.426991910615004" />
	<vType id="vType_car_49.15819745914355" accel="1.0" decel="5.0" sigma="0.0" length="4.5" maxSpeed="13.655054849762097" />
	<vType id="vType_car_4.146645850351549" accel="1.0" decel="5.0" sigma="0.0" length="4.5" maxSpeed="1.151846069542097" />
	<vType id="vType_car_3.885140552933485" accel="1.0" decel="5.0" sigma="0.0" length="4.5" maxSpeed="1.0792057091481904" />
	<vType id="vType_car_18.90568297517073" accel="1.0" decel="5.0" sigma="0.0" length="4.5" maxSpeed="5.2515786042140915" />
	<vType id="vType_car_17.634379210772636" accel="1.0" decel="5.0" sigma="0.0" length="4.5" maxSpeed="4.898438669659066" />
	<vType id="vType_car_43.75881173405247" accel="1.0" decel="5.0" sigma="0.0" length="4.5" maxSpeed="12.155225481681242" />
	<vType id="vType_car_17.71765715875454" accel="1.0" decel="5.0" sigma="0.0" length="4.5" maxSpeed="4.921571432987372" />
	<vType id="vType_car_4.4737783481758" accel="1.0" decel="5.0" sigma="0.0" length="4.5" maxSpeed="1.242716207826611" />
	<vType id="vType_car_24.339693043183424" accel="1.0" decel="5.0" sigma="0.0" length="4.5" maxSpeed="6.761025845328729" />
	<vType id="vType_car_7.753363713125936" accel="1.0" decel="5.0" sigma="0.0" length="4.5" maxSpeed="2.153712142534982" />
	<vType id="vType_car_17.44670850083968" accel="1.0" decel="5.0" sigma="0.0" length="4.5" maxSpeed="4.846307916899911" />
	<vType id="vType_car_9.206979987405566" accel="1.0" decel="5.0" sigma="0.0" length="4.5" maxSpeed="2.5574944409459905" />
	<vType id="vType_car_4.1685568454510395" accel="1.0" decel="5.0" sigma="0.0" length="4.5" maxSpeed="1.1579324570697331" />
	<vType id="vType_car_16.509506124429894" accel="1.0" decel="5.0" sigma="0.0" length="4.5" maxSpeed="4.585973923452748" />
	<vType id="vType_car_13.60819390932077" accel="1.0" decel="5.0" sigma="0.0" length="4.5" maxSpeed="3.7800538637002137" />
	<vType id="vType_car_19.23521298273546" accel="1.0" decel="5.0" sigma="0.0" length="4.5" maxSpeed="5.343114717426517" />
	<vType id="vType_car_22.036478461951443" accel="1.0" decel="5.0" sigma="0.0" length="4.5" maxSpeed="6.121244017208734" />