<?xml version='1.0' encoding='utf-8'?>
<routes><vType id="vType_car_18.782616295988856" accel="1.0" decel="5.0" sigma="0.0" length="4.5" maxSpeed="5.2173934155524595" /><vType id="vType_car_24.801885082671195" accel="1.0" decel="5.0" sigma="0.0" length="4.5" maxSpeed="6.8894125229642205" /><vType id="vType_car_19.305317979564446" accel="1.0" decel="5.0" sigma="0.0" length="4.5" maxSpeed="5.36258832765679" /><vType id="vType_car_12.19427319528282" accel="1.0" decel="5.0" sigma="0.0" length="4.5" maxSpeed="3.387298109800783" /><vType id="vType_car_8.252694927494925" accel="1.0" decel="5.0" sigma="0.0" length="4.5" maxSpeed="2.292415257637479" /><vType id="vType_car_11.92842745082296" accel="1.0" decel="5.0" sigma="0.0" length="4.5" maxSpeed="3.3134520696730445" /><vType id="vType_car_36.35184190939578" accel="1.0" decel="5.0" sigma="0.0" length="4.5" maxSpeed="10.09773386372105" /><vType id="vType_car_25.02161364249702" accel="1.0" decel="5.0" sigma="0.0" length="4.5" maxSpeed="6.95044823402695" /><vType id="vType_car_3.777726317540352" accel="1.0" decel="5.0" sigma="0.0" length="4.5" maxSpeed="1.0493684215389867" /><vType id="vType_car_3.0756183665143717" accel="1.0" decel="5.0" sigma="0.0" length="4.5" maxSpeed="0.854338435142881" /><vType id="vType_car_0.8904186321998894" accel="1.0" decel="5.0" sigma="0.0" length="4.5" maxSpeed="0.2473385089444137" /><vType id="vType_car_24.649199638438382" accel="1.0" decel="5.0" sigma="0.0" length="4.5" maxSpeed="6.846999899566217" /><vType id="vType_car_51.17638413251105" accel="1.0" decel="5.0" sigma="0.0" length="4.5" maxSpeed="14.215662259030848" /><vType id="vType_car_23.260001284615903" accel="1.0" decel="5.0" sigma="0.0" length="4.5" maxSpeed="6.461111467948862" /><vType id="vType_car_2.591659819488989" accel="1.0" decel="5.0" sigma="0.0" length="4.5" maxSpeed="0.7199055054136081" /><vType id="vType_car_43.63444888898099" accel="1.0" decel="5.0" sigma="0.0" length="4.5" maxSpeed="12.120680246939164" /><vType id="vType_car_29.571596418626186" accel="1.0" decel="5.0" sigma="0.0" length="4.5" maxSpeed="8.214332338507274" /><vType id="vType_car_35.4824648970701" accel="1.0" decel="5.0" sigma="0.0" length="4.5" maxSpeed="9.85624024918614" /><vType id="vType_car_28.103936497182566" accel="1.0" decel="5.0" sigma="0.0" length="4.5" maxSpeed="7.806649026995157" /><vType id="vType_car_1.9938000009240748" accel="1.0" decel="5.0" sigma="0.0" length="4.5" maxSpeed="0.5538333335900207" /><vType id="vType_car_51.2665735120236" accel="1.0" decel="5.0" sigma="0.0" length="4.5" maxSpeed="14.240714864450998" /><vType id="vType_car_14.246559524283706" accel="1.0" decel="5.0" sigma="0.0" length="4.5" maxSpeed="3.9573776456343626" /><vType id="vType_car_31.35279149115643" accel="1.0" decel="5.0" sigma="0.0" length="4.5" maxSpeed="8.709108747543453" /><vType id="vType_car_7.419869523211313" accel="1.0" decel="5.0" sigma="0.0" length="4.5" maxSpeed="2.061074867558698" /><vType id="vType_car_8.433321812816121" accel="1.0" decel="5.0" sigma="0.0" length="4.5" maxSpeed="2.3425893924489225" /><vType id="vType_car_9.283991889094485" accel="1.0" decel="5.0" sigma="0.0" length="4.5" maxSpeed="2.5788866358595794" /><vType id="vType_car_37.78288068686452" accel="1.0" decel="5.0" sigma="0.0" length="4.5" maxSpeed="10.495244635240145" /><vType id="vType_car_32.49573028717545" accel="1.0" decel="5.0" sigma="0.0" length="4.5" maxSpeed="9.026591746437624" /><vType id="vType_car_62.72328183167246" accel="1.0" decel="5.0" sigma="0.0" length="4.5" maxSpeed="17.42313384213124" /><vType id="vType_car_4.984187137961436" accel="1.0" decel="5.0" sigma="0.0" length="4.5" maxSpeed="1.3844964272115101" /><vType id="vType_car_31.447769161566185" accel="1.0" decel="5.0" sigma="0.0" length="4.5" maxSpeed="8.735491433768384" /><vType id="vType_car_38.29949394996932" accel="1.0" decel="5.0" sigma="0.0" length="4.5" maxSpeed="10.638748319435921" /><vType id="vType_car_63.94755913646371" accel="1.0" decel="5.0" sigma="0.0" length="4.5" maxSpeed="17.76321087123992" /><vType id="vType_car_5.2868243239542805" accel="1.0" decel="5.0" sigma="0.0" length="4.5" maxSpeed="1.4685623122095224" /><vType id="vType_car_31.33965276319935" accel="1.0" decel="5.0" sigma="0.0" length="4.5" maxSpeed="8.705459100888708" /><vType id="vType_car_4.631569137205698" accel="1.0" decel="5.0" sigma="0.0" length="4.5" maxSpeed="1.2865469825571383" /><vType id="vType_car_32.089271783025204" accel="1.0" decel="5.0" sigma="0.0" length="4.5" maxSpeed="8.91368660639589" /><vType id="vType_car_5.569362508506064" accel="1.0" decel="5.0" sigma="0.0" length="4.5" maxSpeed="1.5470451412516844" /><vType id="vType_car_41.6018990529998" accel="1.0" decel="5.0" sigma="0.0" length="4.5" maxSpeed="11.55608307027772" /><vType id="vType_car_5.631993598355345" accel="1.0" decel="5.0" sigma="0.0" length="4.5" maxSpeed="1.564442666209818" /><vType id="vType_car_4.407347370463744" accel="1.0" decel="5.0" sigma="0.0" length="4.5" maxSpeed="1.224263158462151" /><vType id="vType_car_16.309150649281662" accel="1.0" decel="5.0" sigma="0.0" length="4.5" maxSpeed="4.530319624800462" /><vType id="vType_car_23.225265613005483" accel="1.0" decel="5.0" sigma="0.0" length="4.5" maxSpeed="6.451462670279301" /><vType id="vType_car_5.342511793199336" accel="1.0" decel="5.0" sigma="0.0" length="4.5" maxSpeed="1.484031053666482" /><vType id="vType_car_30.01537480416341" accel="1.0" decel="5.0" sigma="0.0" length="4.5" maxSpeed="8.337604112267615" /><vType id="vType_car_23.513405110371814" accel="1.0" decel="5.0" sigma="0.0" length="4.5" maxSpeed="6.531501419547726" /><vType id="vType_car_24.338213318341104" accel="1.0" decel="5.0" sigma="0.0" length="4.5" maxSpeed="6.760614810650306" /><vType id="vType_car_16.84899118861669" accel="1.0" decel="5.0" sigma="0.0" length="4.5" maxSpeed="4.680275330171303" /><vType id="vType_car_27.573722297858318" accel="1.0" decel="5.0" sigma="0.0" length="4.5" maxSpeed="7.659367304960644" /><vType id="vType_car_23.443769103753795" accel="1.0" decel="5.0" sigma="0.0" length="4.5" maxSpeed="6.512158084376054" /><vType id="vType_car_24.915489976061654" accel="1.0" decel="5.0" sigma="0.0" length="4.5" maxSpeed="6.920969437794904" /><vType id="vType_car_2.455522106401229" accel="1.0" decel="5.0" sigma="0.0" length="4.5" maxSpeed="0.6820894740003414" /><vType id="vType_car_22.349964632110474" accel="1.0" decel="5.0" sigma="0.0" length="4.5" maxSpeed="6.208323508919576" /><vType id="vType_car_17.310553677240183" accel="1.0" decel="5.0" sigma="0.0" length="4.5" maxSpeed="4.808487132566717" /><vType id="vType_car_14.679568458288577" accel="1.0" decel="5.0" sigma="0.0" length="4.5" maxSpeed="4.0776579050801605" /><vType id="vType_car_31.263986417680744" accel="1.0" decel="5.0" sigma="0.0" length="4.5" maxSpeed="8.684440671577985" /><vType id="vType_car_16.062720505599316" accel="1.0" decel="5.0" sigma="0.0" length="4.5" maxSpeed="4.461866807110921" /><vType id="vType_car_30.345225596482294" accel="1.0" decel="5.0" sigma="0.0" length="4.5" maxSpeed="8.429229332356192" /><vType id="vType_car_9.546048582946199" accel="1.0" decel="5.0" sigma="0.0" length="4.5" maxSpeed="2.6516801619294994" /><vType id="vType_car_3.0921407658433715" accel="1.0" decel="5.0" sigma="0.0" length="4.5" maxSpeed="0.8589279905120476" /><vType id="vType_car_2.232087510612424" accel="1.0" decel="5.0" sigma="0.0" length="4.5" maxSpeed="0.620024308503451" /><vType id="vType_car_31.888780757575386" accel="1.0" decel="5.0" sigma="0.0" length="4.5" maxSpeed="8.857994654882052" /><vType id="vType_car_15.637245170247047" accel="1.0" decel="5.0" sigma="0.0" length="4.5" maxSpeed="4.343679213957513" /><vType id="vType_car_9.513347987564222" accel="1.0" decel="5.0" sigma="0.0" length="4.5" maxSpeed="2.642596663212284" /><vType id="vType_car_21.718919128335656" accel="1.0" decel="5.0" sigma="0.0" length="4.5" maxSpeed="6.033033091204349" /><vType id="vType_car_17.760328064455948" accel="1.0" decel="5.0" sigma="0.0" length="4.5" maxSpeed="4.933424462348874" /><vType id="vType_car_3.399953685786317" accel="1.0" decel="5.0" sigma="0.0" length="4.5" maxSpeed="0.944431579385088" /><vType id="vType_car_18.397912765720985" accel="1.0" decel="5.0" sigma="0.0" length="4.5" maxSpeed="5.110531323811385" /><vType id="vType_car_28.31945816787788" accel="1.0" decel="5.0" sigma="0.0" length="4.5" maxSpeed="7.866516157743855" /><vType id="vType_car_19.506796854019104" accel="1.0" decel="5.0" sigma="0.0" length="4.5" maxSpeed="5.418554681671973" /><vType id="vType_car_24.94058006634947" accel="1.0" decel="5.0" sigma="0.0" length="4.5" maxSpeed="6.927938907319296" /><vType id="vType_car_18.83111373640152" accel="1.0" decel="5.0" sigma="0.0" length="4.5" maxSpeed="5.2308649267781995" /><vType id="vType_car_3.3709010749152544" accel="1.0" decel="5.0" sigma="0.0" length="4.5" maxSpeed="0.9363614096986818" /><vType id="vType_car_16.791427179190443" accel="1.0" decel="5.0" sigma="0.0" length="4.5" maxSpeed="4.664285327552901" /><vType id="vType_car_21.655013345389612" accel="1.0" decel="5.0" sigma="0.0" length="4.5" maxSpeed="6.015281484830448" /><vType id="vType_car_20.51160574991815" accel="1.0" decel="5.0" sigma="0.0" length="4.5" maxSpeed="5.697668263866153" /><vType id="vType_car_15.742304706382669" accel="1.0" decel="5.0" sigma="0.0" length="4.5" maxSpeed="4.37286241843963" /><vType id="vType_car_3.7777263175403517" accel="1.0" decel="5.0" sigma="0.0" length="4.5" maxSpeed="1.0493684215389865" /><vType id="vType_car_18.3912572114954" accel="1.0" decel="5.0" sigma="0.0" length="4.5" maxSpeed="5.108682558748722" /><vType id="vType_car_18.98742904337497" accel="1.0" decel="5.0" sigma="0.0" length="4.5" maxSpeed="5.274285845381936" /><vType id="vType_car_19.977507238386313" accel="1.0" decel="5.0" sigma="0.0" length="4.5" maxSpeed="5.54930756621842" /><vType id="vType_car_16.636229737695" accel="1.0" decel="5.0" sigma="0.0" length="4.5" maxSpeed="4.6211749271375" /><vType id="vType_car_4.809177530074163" accel="1.0" decel="5.0" sigma="0.0" length="4.5" maxSpeed="1.3358826472428231" /><vType id="vType_car_7.191180890920367" accel="1.0" decel="5.0" sigma="0.0" length="4.5" maxSpeed="1.9975502474778797" /><vType id="vType_car_3.875814174878827" accel="1.0" decel="5.0" sigma="0.0" length="4.5" maxSpeed="1.076615048577452" /><vType id="vType_car_21.184573920308726" accel="1.0" decel="5.0" sigma="0.0" length="4.5" maxSpeed="5.884603866752424" /><vType id="vType_car_16.357549041302146" accel="1.0" decel="5.0" sigma="0.0" length="4.5" maxSpeed="4.5437636225839295" /><vType id="vType_car_20.805873043696877" accel="1.0" decel="5.0" sigma="0.0" length="4.5" maxSpeed="5.779409178804688" /><vType id="vType_car_28.132613440338567" accel="1.0" decel="5.0" sigma="0.0" length="4.5" maxSpeed="7.81461484453849" /><vType id="vType_car_10.866145044270404" accel="1.0" decel="5.0" sigma="0.0" length="4.5" maxSpeed="3.0183736234084453" /><vType id="vType_car_24.328649999618065" accel="1.0" decel="5.0" sigma="0.0" length="4.5" maxSpeed="6.75795833322724" /><vType id="vType_car_26.06297149779566" accel="1.0" decel="5.0" sigma="0.0" length="4.5" maxSpeed="7.239714304943239" /><vType id="vType_car_3.1329701431524555" accel="1.0" decel="5.0" sigma="0.0" length="4.5" maxSpeed="0.8702694842090154" /><vType id="vType_car_28.911162991262955" accel="1.0" decel="5.0" sigma="0.0" length="4.5" maxSpeed="8.030878608684153" /><vType id="vType_car_17.852226515155333" accel="1.0" decel="5.0" sigma="0.0" length="4.5" maxSpeed="4.95895180976537" /><vType id="vType_car_19.235558021862346" accel="1.0" decel="5.0" sigma="0.0" length="4.5" maxSpeed="5.343210561628429" /><vType id="vType_car_3.2179935749674513" accel="1.0" decel="5.0" sigma="0.0" length="4.5" maxSpeed="0.8938871041576253" /><vType id="vType_car_6.21443902147621" accel="1.0" decel="5.0" sigma="0.0" length="4.5" maxSpeed="1.7262330615211694" /><vType id="vType_car_19.887677395432263" accel="1.0" decel="5.0" sigma="0.0" length="4.5" maxSpeed="5.5243548320645175" /><vType id="vType_car_27.356164976730643" accel="1.0" decel="5.0" sigma="0.0" length="4.5" maxSpeed="7.598934715758512" /><vType id="vType_car_42.74116099907393" accel="1.0" decel="5.0" sigma="0.0" length="4.5" maxSpeed="11.87254472196498" /><vType id="vType_car_19.79547583032293" accel="1.0" decel="5.0" sigma="0.0" length="4.5" maxSpeed="5.498743286200813" /><vType id="vType_car_4.2954359345697695" accel="1.0" decel="5.0" sigma="0.0" length="4.5" maxSpeed="1.1931766484916027" /><vType id="vType_truck_47.41218477129404" accel="1.0" decel="5.0" sigma="0.0" length="8" maxSpeed="13.170051325359454" /><vType id="vType_car_3.579958939778019" accel="1.0" decel="5.0" sigma="0.0" length="4.5" maxSpeed="0.9944330388272274" /><vType id="vType_car_21.177001601780823" accel="1.0" decel="5.0" sigma="0.0" length="4.5" maxSpeed="5.882500444939118" /><vType id="vType_car_25.744015808933106" accel="1.0" decel="5.0" sigma="0.0" length="4.5" maxSpeed="7.151115502481418" /><vType id="vType_car_26.764145397190727" accel="1.0" decel="5.0" sigma="0.0" length="4.5" maxSpeed="7.43448483255298" /><vType id="vType_car_27.922534129344736" accel="1.0" decel="5.0" sigma="0.0" length="4.5" maxSpeed="7.756259480373537" /><vType id="vType_car_31.402138275887484" accel="1.0" decel="5.0" sigma="0.0" length="4.5" maxSpeed="8.722816187746524" /><vType id="vType_car_5.333252588918192" accel="1.0" decel="5.0" sigma="0.0" length="4.5" maxSpeed="1.4814590524772757" /><vType id="vType_car_8.485344227806577" accel="1.0" decel="5.0" sigma="0.0" length="4.5" maxSpeed="2.3570400632796047" /><vType id="vType_car_3.8505589027706617" accel="1.0" decel="5.0" sigma="0.0" length="4.5" maxSpeed="1.0695996952140727" /><vType id="vType_car_19.625204072580637" accel="1.0" decel="5.0" sigma="0.0" length="4.5" maxSpeed="5.451445575716844" /><vType id="vType_car_22.29503540387215" accel="1.0" decel="5.0" sigma="0.0" length="4.5" maxSpeed="6.193065389964485" /><vType id="vType_car_16.319041697243847" accel="1.0" decel="5.0" sigma="0.0" length="4.5" maxSpeed="4.5330671381232905" /><vType id="vType_car_4.001267099777349" accel="1.0" decel="5.0" sigma="0.0" length="4.5" maxSpeed="1.111463083271486" /><vType id="vType_car_30.61547457515378" accel="1.0" decel="5.0" sigma="0.0" length="4.5" maxSpeed="8.504298493098272" /><vType id="vType_car_31.78482656421285" accel="1.0" decel="5.0" sigma="0.0" length="4.5" maxSpeed="8.829118490059125" /><vType id="vType_car_18.690414630712272" accel="1.0" decel="5.0" sigma="0.0" length="4.5" maxSpeed="5.19178184186452" /><vType id="vType_car_3.408902843893457" accel="1.0" decel="5.0" sigma="0.0" length="4.5" maxSpeed="0.9469174566370714" /><vType id="vType_car_4.517699848433883" accel="1.0" decel="5.0" sigma="0.0" length="4.5" maxSpeed="1.2549166245649674" /><vType id="vType_car_16.42476860976218" accel="1.0" decel="5.0" sigma="0.0" length="4.5" maxSpeed="4.5624357249339385" /><vType id="vType_car_24.495884754357853" accel="1.0" decel="5.0" sigma="0.0" length="4.5" maxSpeed="6.80441243176607" /><vType id="vType_car_7.555452635080704" accel="1.0" decel="5.0" sigma="0.0" length="4.5" maxSpeed="2.0987368430779734" /><vType id="vType_car_24.279946239006037" accel="1.0" decel="5.0" sigma="0.0" length="4.5" maxSpeed="6.74442951083501" /><vType id="vType_car_4.557015318106454" accel="1.0" decel="5.0" sigma="0.0" length="4.5" maxSpeed="1.2658375883629038" /><vType id="vType_car_4.153524597515852" accel="1.0" decel="5.0" sigma="0.0" length="4.5" maxSpeed="1.153756832643292" /><vType id="vType_car_7.838902019700823" accel="1.0" decel="5.0" sigma="0.0" length="4.5" maxSpeed="2.1774727832502285" /><vType id="vType_car_37.14280074985435" accel="1.0" decel="5.0" sigma="0.0" length="4.5" maxSpeed="10.31744465273732" /><vType id="vType_car_69.31378607507371" accel="1.0" decel="5.0" sigma="0.0" length="4.5" maxSpeed="19.253829465298253" /><route id="route_north_to_east" edges="north_to_center center_to_east" /><route id="route_north_to_south" edges="north_to_center center_to_south" /><route id="route_north_to_west" edges="north_to_center center_to_west" /><route id="route_east_to_west" edges="east_to_center center_to_west" /><route id="route_east_to_south" edges="east_to_center center_to_south" /><route id="route_east_to_north" edges="east_to_center center_to_north" /><route id="route_south_to_west" edges="south_to_center center_to_west" /><route id="route_south_to_north" edges="south_to_center center_to_north" /><route id="route_south_to_east" edges="south_to_center center_to_east" /><route id="route_west_to_south" edges="west_to_center center_to_south" /><route id="route_west_to_north" edges="west_to_center center_to_north" /><route id="route_west_to_east" edges="west_to_center center_to_east" /><vehicle id="veh223" type="vType_car_18.782616295988856" route="route_west_to_north" depart="0.03" /><vehicle id="veh232" type="vType_car_24.801885082671195" route="route_west_to_south" depart="0.03" /><vehicle id="veh228" type="vType_car_19.305317979564446" route="route_west_to_north" depart="0.03" /><vehicle id="veh359" type="vType_car_8.252694927494925" route="route_north_to_east" depart="0.03" /><vehicle id="veh361" type="vType_car_11.92842745082296" route="route_north_to_south" depart="0.03" /><vehicle id="veh290" type="vType_car_25.02161364249702" route="route_east_to_west" depart="0.03" /><vehicle id="veh369" type="vType_car_51.17638413251105" route="route_west_to_east" depart="5.67" /><vehicle id="veh372" type="vType_car_23.260001284615903" route="route_west_to_north" depart="7.04" /><vehicle id="veh375" type="vType_car_43.63444888898099" route="route_west_to_east" depart="8.87" /><vehicle id="veh376" type="vType_car_29.571596418626186" route="route_west_to_north" depart="10.44" /><vehicle id="veh379" type="vType_car_35.4824648970701" route="route_west_to_south" depart="12.14" /><vehicle id="veh380" type="vType_car_28.103936497182566" route="route_west_to_north" depart="12.21" /><vehicle id="veh385" type="vType_car_51.2665735120236" route="route_west_to_east" depart="14.91" /><vehicle id="veh386" type="vType_car_14.246559524283706" route="route_west_to_north" depart="15.08" /><vehicle id="veh387" type="vType_car_31.35279149115643" route="route_east_to_west" depart="17.28" /><vehicle id="veh391" type="vType_car_8.433321812816121" route="route_east_to_north" depart="19.04" /><vehicle id="veh393" type="vType_car_9.283991889094485" route="route_east_to_north" depart="19.88" /><vehicle id="veh396" type="vType_car_37.78288068686452" route="route_east_to_west" depart="20.15" /><vehicle id="veh397" type="vType_car_32.49573028717545" route="route_west_to_south" depart="20.38" /><vehicle id="veh398" type="vType_car_62.72328183167246" route="route_west_to_east" depart="21.38" /><vehicle id="veh402" type="vType_car_31.447769161566185" route="route_east_to_west" depart="23.05" /><vehicle id="veh405" type="vType_car_38.29949394996932" route="route_east_to_west" depart="26.15" /><vehicle id="veh409" type="vType_car_63.94755913646371" route="route_west_to_east" depart="27.75" /><vehicle id="veh416" type="vType_car_32.089271783025204" route="route_west_to_south" depart="33.59" /><vehicle id="veh418" type="vType_car_41.6018990529998" route="route_east_to_west" depart="36.49" /><vehicle id="veh421" type="vType_car_16.309150649281662" route="route_north_to_east" depart="42.59" /><vehicle id="veh422" type="vType_car_23.225265613005483" route="route_north_to_west" depart="42.79" /><vehicle id="veh425" type="vType_car_30.01537480416341" route="route_north_to_south" depart="46.13" /><vehicle id="veh426" type="vType_car_23.513405110371814" route="route_north_to_east" depart="46.13" /><vehicle id="veh428" type="vType_car_24.338213318341104" route="route_north_to_west" depart="48.30" /><vehicle id="veh429" type="vType_car_16.84899118861669" route="route_north_to_east" depart="48.33" /><vehicle id="veh430" type="vType_car_27.573722297858318" route="route_north_to_south" depart="49.90" /><vehicle id="veh431" type="vType_car_23.443769103753795" route="route_north_to_south" depart="50.20" /><vehicle id="veh432" type="vType_car_24.915489976061654" route="route_north_to_west" depart="50.30" /><vehicle id="veh437" type="vType_car_22.349964632110474" route="route_north_to_south" depart="53.93" /><vehicle id="veh438" type="vType_car_17.310553677240183" route="route_north_to_east" depart="54.17" /><vehicle id="veh439" type="vType_car_14.679568458288577" route="route_north_to_east" depart="55.20" /><vehicle id="veh440" type="vType_car_31.263986417680744" route="route_north_to_south" depart="56.63" /><vehicle id="veh442" type="vType_car_16.062720505599316" route="route_north_to_east" depart="58.34" /><vehicle id="veh443" type="vType_car_30.345225596482294" route="route_north_to_south" depart="58.77" /><vehicle id="veh444" type="vType_car_9.546048582946199" route="route_east_to_north" depart="58.87" /><vehicle id="veh447" type="vType_car_31.888780757575386" route="route_north_to_south" depart="60.87" /><vehicle id="veh448" type="vType_car_15.637245170247047" route="route_north_to_east" depart="60.90" /><vehicle id="veh450" type="vType_car_9.513347987564222" route="route_south_to_north" depart="62.57" /><vehicle id="veh452" type="vType_car_21.718919128335656" route="route_north_to_west" depart="62.84" /><vehicle id="veh453" type="vType_car_17.760328064455948" route="route_north_to_east" depart="63.17" /><vehicle id="veh455" type="vType_car_18.397912765720985" route="route_north_to_east" depart="65.07" /><vehicle id="veh456" type="vType_car_28.31945816787788" route="route_north_to_south" depart="65.34" /><vehicle id="veh462" type="vType_car_19.506796854019104" route="route_north_to_east" depart="67.01" /><vehicle id="veh463" type="vType_car_24.94058006634947" route="route_north_to_south" depart="67.44" /><vehicle id="veh465" type="vType_car_18.83111373640152" route="route_north_to_east" depart="67.97" /><vehicle id="veh468" type="vType_car_16.791427179190443" route="route_north_to_east" depart="70.48" /><vehicle id="veh469" type="vType_car_21.655013345389612" route="route_north_to_west" depart="70.64" /><vehicle id="veh470" type="vType_car_20.51160574991815" route="route_north_to_west" depart="72.34" /><vehicle id="veh475" type="vType_car_15.742304706382669" route="route_north_to_east" depart="73.24" /><vehicle id="veh480" type="vType_car_18.3912572114954" route="route_north_to_south" depart="74.21" /><vehicle id="veh486" type="vType_car_18.98742904337497" route="route_north_to_east" depart="75.75" /><vehicle id="veh488" type="vType_car_19.977507238386313" route="route_north_to_west" depart="76.58" /><vehicle id="veh489" type="vType_car_16.636229737695" route="route_north_to_east" depart="77.21" /><vehicle id="veh496" type="vType_car_21.184573920308726" route="route_north_to_west" depart="80.72" /><vehicle id="veh497" type="vType_car_16.357549041302146" route="route_north_to_east" depart="82.08" /><vehicle id="veh502" type="vType_car_28.132613440338567" route="route_north_to_south" depart="83.38" /><vehicle id="veh503" type="vType_car_10.866145044270404" route="route_north_to_east" depart="84.42" /><vehicle id="veh505" type="vType_car_24.328649999618065" route="route_north_to_west" depart="85.85" /><vehicle id="veh508" type="vType_car_26.06297149779566" route="route_north_to_south" depart="87.09" /><vehicle id="veh510" type="vType_car_28.911162991262955" route="route_north_to_south" depart="88.55" /><vehicle id="veh514" type="vType_car_17.852226515155333" route="route_south_to_north" depart="91.05" /><vehicle id="veh515" type="vType_car_19.235558021862346" route="route_north_to_west" depart="91.22" /><vehicle id="veh519" type="vType_car_19.887677395432263" route="route_south_to_north" depart="93.26" /><vehicle id="veh520" type="vType_car_27.356164976730643" route="route_north_to_south" depart="93.26" /><vehicle id="veh523" type="vType_car_19.79547583032293" route="route_north_to_west" depart="94.96" /><vehicle id="veh527" type="vType_car_21.177001601780823" route="route_north_to_south" depart="97.83" /><vehicle id="veh528" type="vType_car_25.744015808933106" route="route_north_to_south" depart="98.53" /><vehicle id="veh530" type="vType_car_26.764145397190727" route="route_south_to_east" depart="98.79" /><vehicle id="veh535" type="vType_car_27.922534129344736" route="route_north_to_south" depart="100.86" /><vehicle id="veh537" type="vType_car_31.402138275887484" route="route_south_to_north" depart="101.06" /><vehicle id="veh541" type="vType_car_8.485344227806577" route="route_east_to_north" depart="101.93" /><vehicle id="veh546" type="vType_car_19.625204072580637" route="route_north_to_east" depart="102.96" /><vehicle id="veh548" type="vType_car_22.29503540387215" route="route_north_to_west" depart="103.83" /><vehicle id="veh551" type="vType_car_16.319041697243847" route="route_north_to_east" depart="105.83" /><vehicle id="veh554" type="vType_car_30.61547457515378" route="route_north_to_south" depart="106.16" /><vehicle id="veh555" type="vType_car_31.78482656421285" route="route_north_to_south" depart="108.13" /><vehicle id="veh557" type="vType_car_18.690414630712272" route="route_north_to_east" depart="108.77" /><vehicle id="veh562" type="vType_car_16.42476860976218" route="route_north_to_east" depart="111.30" /><vehicle id="veh565" type="vType_car_24.279946239006037" route="route_south_to_north" depart="112.60" /></routes>