<?xml version='1.0' encoding='utf-8'?>
<routes><vType id="vType_car_18.500886657557896" accel="1.0" decel="5.0" sigma="0.0" length="4.5" maxSpeed="5.139135182654971" /><vType id="vType_car_55.90982808584698" accel="1.0" decel="5.0" sigma="0.0" length="4.5" maxSpeed="15.530507801624161" /><vType id="vType_car_41.46556054594615" accel="1.0" decel="5.0" sigma="0.0" length="4.5" maxSpeed="11.518211262762819" /><vType id="vType_car_14.149008590588194" accel="1.0" decel="5.0" sigma="0.0" length="4.5" maxSpeed="3.930280164052276" /><vType id="vType_car_3.7579623242877083" accel="1.0" decel="5.0" sigma="0.0" length="4.5" maxSpeed="1.0438784234132523" /><vType id="vType_car_23.142128373686997" accel="1.0" decel="5.0" sigma="0.0" length="4.5" maxSpeed="6.4283689926908325" /><vType id="vType_car_36.87643938619963" accel="1.0" decel="5.0" sigma="0.0" length="4.5" maxSpeed="10.243455385055452" /><vType id="vType_car_16.93550679329459" accel="1.0" decel="5.0" sigma="0.0" length="4.5" maxSpeed="4.70430744258183" /><vType id="vType_car_16.85446231217499" accel="1.0" decel="5.0" sigma="0.0" length="4.5" maxSpeed="4.681795086715275" /><vType id="vType_car_5.100794714394528" accel="1.0" decel="5.0" sigma="0.0" length="4.5" maxSpeed="1.4168874206651467" /><vType id="vType_car_21.384199765266526" accel="1.0" decel="5.0" sigma="0.0" length="4.5" maxSpeed="5.940055490351813" /><vType id="vType_car_5.2362974060020395" accel="1.0" decel="5.0" sigma="0.0" length="4.5" maxSpeed="1.4545270572227886" /><vType id="vType_truck_4.610629527542765" accel="1.0" decel="5.0" sigma="0.0" length="8" maxSpeed="1.280730424317435" /><vType id="vType_car_26.576802206622588" accel="1.0" decel="5.0" sigma="0.0" length="4.5" maxSpeed="7.382445057395163" /><vType id="vType_car_28.111213774593278" accel="1.0" decel="5.0" sigma="0.0" length="4.5" maxSpeed="7.808670492942577" /><vType id="vType_car_25.04206331268198" accel="1.0" decel="5.0" sigma="0.0" length="4.5" maxSpeed="6.956128697967216" /><route id="route_north_to_east" edges="north_to_center center_to_east" /><route id="route_north_to_south" edges="north_to_center center_to_south" /><route id="route_north_to_west" edges="north_to_center center_to_west" /><route id="route_east_to_west" edges="east_to_center center_to_west" /><route id="route_east_to_south" edges="east_to_center center_to_south" /><route id="route_east_to_north" edges="east_to_center center_to_north" /><route id="route_south_to_west" edges="south_to_center center_to_west" /><route id="route_south_to_north" edges="south_to_center center_to_north" /><route id="route_south_to_east" edges="south_to_center center_to_east" /><route id="route_west_to_south" edges="west_to_center center_to_south" /><route id="route_west_to_north" edges="west_to_center center_to_north" /><route id="route_west_to_east" edges="west_to_center center_to_east" /><vehicle id="veh47" type="vType_car_18.500886657557896" route="route_east_to_south" depart="0.03" /><vehicle id="veh59" type="vType_car_55.90982808584698" route="route_west_to_east" depart="0.03" /><vehicle id="veh60" type="vType_car_41.46556054594615" route="route_east_to_west" depart="2.98" /><vehicle id="veh61" type="vType_car_14.149008590588194" route="route_east_to_north" depart="12.57" /><vehicle id="veh63" type="vType_car_23.142128373686997" route="route_south_to_west" depart="17.64" /><vehicle id="veh64" type="vType_car_36.87643938619963" route="route_east_to_west" depart="18.71" /><vehicle id="veh66" type="vType_car_16.93550679329459" route="route_south_to_north" depart="25.35" /><vehicle id="veh67" type="vType_car_16.85446231217499" route="route_west_to_north" depart="31.95" /><vehicle id="veh70" type="vType_car_21.384199765266526" route="route_east_to_west" depart="41.61" /><vehicle id="veh73" type="vType_car_26.576802206622588" route="route_west_to_east" depart="47.68" /><vehicle id="veh74" type="vType_car_28.111213774593278" route="route_west_to_east" depart="49.15" /><vehicle id="veh77" type="vType_car_25.04206331268198" route="route_west_to_south" depart="52.00" /></routes>