<?xml version='1.0' encoding='utf-8'?>
<routes><vType id="vType_car_59.53786512915783" accel="1.0" decel="5.0" sigma="0.0" length="4.5" maxSpeed="16.538295869210508" /><vType id="vType_car_85.42366354510793" accel="1.0" decel="5.0" sigma="0.0" length="4.5" maxSpeed="23.728795429196648" /><vType id="vType_car_13.259194836784651" accel="1.0" decel="5.0" sigma="0.0" length="4.5" maxSpeed="3.683109676884625" /><vType id="vType_car_17.132160080141748" accel="1.0" decel="5.0" sigma="0.0" length="4.5" maxSpeed="4.75893335559493" /><vType id="vType_car_35.91962862911692" accel="1.0" decel="5.0" sigma="0.0" length="4.5" maxSpeed="9.977674619199144" /><vType id="vType_car_35.16701552322859" accel="1.0" decel="5.0" sigma="0.0" length="4.5" maxSpeed="9.768615423119053" /><vType id="vType_car_20.96757492810369" accel="1.0" decel="5.0" sigma="0.0" length="4.5" maxSpeed="5.824326368917692" /><vType id="vType_car_17.88828193796824" accel="1.0" decel="5.0" sigma="0.0" length="4.5" maxSpeed="4.968967204991178" /><vType id="vType_car_5.974990245471213" accel="1.0" decel="5.0" sigma="0.0" length="4.5" maxSpeed="1.6597195126308926" /><vType id="vType_car_14.493152731519961" accel="1.0" decel="5.0" sigma="0.0" length="4.5" maxSpeed="4.025875758755545" /><vType id="vType_car_41.12203889719417" accel="1.0" decel="5.0" sigma="0.0" length="4.5" maxSpeed="11.422788582553936" /><vType id="vType_car_1.307461100444078" accel="1.0" decel="5.0" sigma="0.0" length="4.5" maxSpeed="0.3631836390122439" /><vType id="vType_car_3.9409078149886643" accel="1.0" decel="5.0" sigma="0.0" length="4.5" maxSpeed="1.094696615274629" /><route id="route_north_to_east" edges="north_to_center center_to_east" /><route id="route_north_to_south" edges="north_to_center center_to_south" /><route id="route_north_to_west" edges="north_to_center center_to_west" /><route id="route_east_to_west" edges="east_to_center center_to_west" /><route id="route_east_to_south" edges="east_to_center center_to_south" /><route id="route_east_to_north" edges="east_to_center center_to_north" /><route id="route_south_to_west" edges="south_to_center center_to_west" /><route id="route_south_to_north" edges="south_to_center center_to_north" /><route id="route_south_to_east" edges="south_to_center center_to_east" /><route id="route_west_to_south" edges="west_to_center center_to_south" /><route id="route_west_to_north" edges="west_to_center center_to_north" /><route id="route_west_to_east" edges="west_to_center center_to_east" /><vehicle id="veh205" type="vType_car_59.53786512915783" route="route_east_to_west" depart="7.65" /><vehicle id="veh219" type="vType_car_14.493152731519961" route="route_south_to_east" depart="50.33" /><vehicle id="veh220" type="vType_car_41.12203889719417" route="route_east_to_west" depart="51.80" /></routes>