<?xml version='1.0' encoding='utf-8'?>
<routes><vType id="vType_car_3.8005209162431663" accel="1.0" decel="5.0" sigma="0.0" length="4.5" maxSpeed="1.0557002545119907" /><vType id="vType_car_10.434915090951382" accel="1.0" decel="5.0" sigma="0.0" length="4.5" maxSpeed="2.8985875252642725" /><vType id="vType_car_17.04239735041904" accel="1.0" decel="5.0" sigma="0.0" length="4.5" maxSpeed="4.733999264005289" /><vType id="vType_car_3.7850069188508906" accel="1.0" decel="5.0" sigma="0.0" length="4.5" maxSpeed="1.051390810791914" /><vType id="vType_car_92.3544567374062" accel="1.0" decel="5.0" sigma="0.0" length="4.5" maxSpeed="25.65401576039061" /><vType id="vType_car_28.72851376428549" accel="1.0" decel="5.0" sigma="0.0" length="4.5" maxSpeed="7.980142712301525" /><vType id="vType_car_11.532698650043478" accel="1.0" decel="5.0" sigma="0.0" length="4.5" maxSpeed="3.203527402789855" /><vType id="vType_car_96.90435193459098" accel="1.0" decel="5.0" sigma="0.0" length="4.5" maxSpeed="26.917875537386383" /><vType id="vType_car_45.58688080725877" accel="1.0" decel="5.0" sigma="0.0" length="4.5" maxSpeed="12.66302244646077" /><vType id="vType_car_4.146501633520839" accel="1.0" decel="5.0" sigma="0.0" length="4.5" maxSpeed="1.1518060093113442" /><vType id="vType_car_56.595226208007745" accel="1.0" decel="5.0" sigma="0.0" length="4.5" maxSpeed="15.72089616889104" /><vType id="vType_car_4.013264373445453" accel="1.0" decel="5.0" sigma="0.0" length="4.5" maxSpeed="1.1147956592904036" /><vType id="vType_car_62.44243711088251" accel="1.0" decel="5.0" sigma="0.0" length="4.5" maxSpeed="17.345121419689587" /><vType id="vType_car_3.9002716347296364" accel="1.0" decel="5.0" sigma="0.0" length="4.5" maxSpeed="1.083408787424899" /><vType id="vType_car_4.390353917409069" accel="1.0" decel="5.0" sigma="0.0" length="4.5" maxSpeed="1.2195427548358524" /><vType id="vType_car_8.962424154072888" accel="1.0" decel="5.0" sigma="0.0" length="4.5" maxSpeed="2.4895622650202465" /><vType id="vType_car_11.75120542179527" accel="1.0" decel="5.0" sigma="0.0" length="4.5" maxSpeed="3.2642237282764635" /><vType id="vType_car_3.963016945772159" accel="1.0" decel="5.0" sigma="0.0" length="4.5" maxSpeed="1.1008380404922664" /><vType id="vType_car_62.22040290390975" accel="1.0" decel="5.0" sigma="0.0" length="4.5" maxSpeed="17.283445251086043" /><vType id="vType_car_4.115260893959385" accel="1.0" decel="5.0" sigma="0.0" length="4.5" maxSpeed="1.143128026099829" /><vType id="vType_car_49.80893064481234" accel="1.0" decel="5.0" sigma="0.0" length="4.5" maxSpeed="13.835814068003428" /><vType id="vType_car_58.843207151600595" accel="1.0" decel="5.0" sigma="0.0" length="4.5" maxSpeed="16.345335319889053" /><vType id="vType_car_5.065558722690865" accel="1.0" decel="5.0" sigma="0.0" length="4.5" maxSpeed="1.407099645191907" /><vType id="vType_car_49.23823993503763" accel="1.0" decel="5.0" sigma="0.0" length="4.5" maxSpeed="13.677288870843787" /><vType id="vType_car_4.9611893818239166" accel="1.0" decel="5.0" sigma="0.0" length="4.5" maxSpeed="1.3781081616177546" /><vType id="vType_car_58.56893198054724" accel="1.0" decel="5.0" sigma="0.0" length="4.5" maxSpeed="16.269147772374232" /><vType id="vType_car_25.11934595610984" accel="1.0" decel="5.0" sigma="0.0" length="4.5" maxSpeed="6.9775960989194" /><vType id="vType_car_3.9138558638170267" accel="1.0" decel="5.0" sigma="0.0" length="4.5" maxSpeed="1.0871821843936185" /><vType id="vType_car_47.3314900541119" accel="1.0" decel="5.0" sigma="0.0" length="4.5" maxSpeed="13.147636126142196" /><vType id="vType_car_3.48329139658006" accel="1.0" decel="5.0" sigma="0.0" length="4.5" maxSpeed="0.967580943494461" /><vType id="vType_car_2.4585495762763108" accel="1.0" decel="5.0" sigma="0.0" length="4.5" maxSpeed="0.6829304378545308" /><vType id="vType_car_10.571851112729984" accel="1.0" decel="5.0" sigma="0.0" length="4.5" maxSpeed="2.9366253090916623" /><vType id="vType_car_61.568631209410256" accel="1.0" decel="5.0" sigma="0.0" length="4.5" maxSpeed="17.102397558169514" /><vType id="vType_car_50.14460800488945" accel="1.0" decel="5.0" sigma="0.0" length="4.5" maxSpeed="13.929057779135958" /><vType id="vType_car_12.149511808145533" accel="1.0" decel="5.0" sigma="0.0" length="4.5" maxSpeed="3.374864391151537" /><vType id="vType_car_0.12011349643379514" accel="1.0" decel="5.0" sigma="0.0" length="4.5" maxSpeed="0.03336486012049865" /><vType id="vType_car_3.950232134989592" accel="1.0" decel="5.0" sigma="0.0" length="4.5" maxSpeed="1.0972867041637755" /><vType id="vType_car_12.542365228399563" accel="1.0" decel="5.0" sigma="0.0" length="4.5" maxSpeed="3.4839903412221007" /><vType id="vType_car_1.8867828398141988" accel="1.0" decel="5.0" sigma="0.0" length="4.5" maxSpeed="0.524106344392833" /><vType id="vType_car_60.346483537406975" accel="1.0" decel="5.0" sigma="0.0" length="4.5" maxSpeed="16.76291209372416" /><vType id="vType_car_3.3381542550558905" accel="1.0" decel="5.0" sigma="0.0" length="4.5" maxSpeed="0.9272650708488585" /><vType id="vType_car_54.84517050429911" accel="1.0" decel="5.0" sigma="0.0" length="4.5" maxSpeed="15.23476958452753" /><vType id="vType_car_3.7929648503309026" accel="1.0" decel="5.0" sigma="0.0" length="4.5" maxSpeed="1.0536013473141397" /><vType id="vType_truck_9.191446771403431" accel="1.0" decel="5.0" sigma="0.0" length="8" maxSpeed="2.553179658723175" /><vType id="vType_car_4.073867600697524" accel="1.0" decel="5.0" sigma="0.0" length="4.5" maxSpeed="1.1316298890826455" /><vType id="vType_bus_51.85592943460267" accel="1.0" decel="5.0" sigma="0.0" length="13" maxSpeed="14.404424842945186" /><vType id="vType_car_3.228233289277674" accel="1.0" decel="5.0" sigma="0.0" length="4.5" maxSpeed="0.8967314692437983" /><vType id="vType_car_45.79172333851003" accel="1.0" decel="5.0" sigma="0.0" length="4.5" maxSpeed="12.71992314958612" /><vType id="vType_car_3.210092071358094" accel="1.0" decel="5.0" sigma="0.0" length="4.5" maxSpeed="0.891692242043915" /><vType id="vType_car_16.074729130121508" accel="1.0" decel="5.0" sigma="0.0" length="4.5" maxSpeed="4.465202536144863" /><vType id="vType_car_54.826932363727714" accel="1.0" decel="5.0" sigma="0.0" length="4.5" maxSpeed="15.229703434368808" /><vType id="vType_car_60.461834028552424" accel="1.0" decel="5.0" sigma="0.0" length="4.5" maxSpeed="16.794953896820118" /><vType id="vType_car_3.4832913965800594" accel="1.0" decel="5.0" sigma="0.0" length="4.5" maxSpeed="0.9675809434944609" /><vType id="vType_car_46.180062155475525" accel="1.0" decel="5.0" sigma="0.0" length="4.5" maxSpeed="12.827795043187646" /><vType id="vType_car_17.86641644282634" accel="1.0" decel="5.0" sigma="0.0" length="4.5" maxSpeed="4.962893456340649" /><vType id="vType_car_3.652849695309782" accel="1.0" decel="5.0" sigma="0.0" length="4.5" maxSpeed="1.014680470919384" /><vType id="vType_car_1.4564719167697293" accel="1.0" decel="5.0" sigma="0.0" length="4.5" maxSpeed="0.4045755324360359" /><vType id="vType_car_29.8285062649973" accel="1.0" decel="5.0" sigma="0.0" length="4.5" maxSpeed="8.285696184721472" /><vType id="vType_car_2.995467548914254" accel="1.0" decel="5.0" sigma="0.0" length="4.5" maxSpeed="0.8320743191428484" /><vType id="vType_car_5.259351153864672" accel="1.0" decel="5.0" sigma="0.0" length="4.5" maxSpeed="1.46093087607352" /><vType id="vType_car_12.908556520192992" accel="1.0" decel="5.0" sigma="0.0" length="4.5" maxSpeed="3.5857101444980533" /><vType id="vType_car_44.353105871314774" accel="1.0" decel="5.0" sigma="0.0" length="4.5" maxSpeed="12.320307186476326" /><vType id="vType_car_5.2374719629065405" accel="1.0" decel="5.0" sigma="0.0" length="4.5" maxSpeed="1.4548533230295946" /><vType id="vType_car_2.35122169269154" accel="1.0" decel="5.0" sigma="0.0" length="4.5" maxSpeed="0.653117136858761" /><vType id="vType_car_15.716923671089571" accel="1.0" decel="5.0" sigma="0.0" length="4.5" maxSpeed="4.365812130858214" /><vType id="vType_car_13.61316557225395" accel="1.0" decel="5.0" sigma="0.0" length="4.5" maxSpeed="3.7814348811816525" /><vType id="vType_car_8.679354742826549" accel="1.0" decel="5.0" sigma="0.0" length="4.5" maxSpeed="2.4109318730073745" /><vType id="vType_car_21.915813719967378" accel="1.0" decel="5.0" sigma="0.0" length="4.5" maxSpeed="6.087726033324271" /><vType id="vType_car_28.137205315768234" accel="1.0" decel="5.0" sigma="0.0" length="4.5" maxSpeed="7.815890365491176" /><vType id="vType_car_20.302805165418015" accel="1.0" decel="5.0" sigma="0.0" length="4.5" maxSpeed="5.639668101505004" /><vType id="vType_car_2.9424106442279117" accel="1.0" decel="5.0" sigma="0.0" length="4.5" maxSpeed="0.8173362900633088" /><vType id="vType_car_8.645151367901835" accel="1.0" decel="5.0" sigma="0.0" length="4.5" maxSpeed="2.4014309355282877" /><vType id="vType_car_5.962240932480634" accel="1.0" decel="5.0" sigma="0.0" length="4.5" maxSpeed="1.656178036800176" /><vType id="vType_car_0.24818451200632924" accel="1.0" decel="5.0" sigma="0.0" length="4.5" maxSpeed="0.06894014222398034" /><vType id="vType_car_18.412966481471518" accel="1.0" decel="5.0" sigma="0.0" length="4.5" maxSpeed="5.114712911519866" /><route id="route_north_to_east" edges="north_to_center center_to_east" /><route id="route_north_to_south" edges="north_to_center center_to_south" /><route id="route_north_to_west" edges="north_to_center center_to_west" /><route id="route_east_to_west" edges="east_to_center center_to_west" /><route id="route_east_to_south" edges="east_to_center center_to_south" /><route id="route_east_to_north" edges="east_to_center center_to_north" /><route id="route_south_to_west" edges="south_to_center center_to_west" /><route id="route_south_to_north" edges="south_to_center center_to_north" /><route id="route_south_to_east" edges="south_to_center center_to_east" /><route id="route_west_to_south" edges="west_to_center center_to_south" /><route id="route_west_to_north" edges="west_to_center center_to_north" /><route id="route_west_to_east" edges="west_to_center center_to_east" /><vehicle id="veh893" type="vType_car_17.04239735041904" route="route_west_to_north" depart="0.04" /><vehicle id="veh895" type="vType_car_92.3544567374062" route="route_west_to_east" depart="0.04" /><vehicle id="veh901" type="vType_car_96.90435193459098" route="route_west_to_east" depart="1.70" /><vehicle id="veh902" type="vType_car_45.58688080725877" route="route_west_to_south" depart="2.71" /><vehicle id="veh907" type="vType_car_56.595226208007745" route="route_west_to_east" depart="4.49" /><vehicle id="veh911" type="vType_car_62.44243711088251" route="route_west_to_east" depart="5.43" /><vehicle id="veh916" type="vType_car_11.75120542179527" route="route_east_to_north" depart="7.27" /><vehicle id="veh919" type="vType_car_62.22040290390975" route="route_west_to_east" depart="10.85" /><vehicle id="veh921" type="vType_car_49.80893064481234" route="route_west_to_south" depart="12.55" /><vehicle id="veh922" type="vType_car_58.843207151600595" route="route_east_to_west" depart="13.02" /><vehicle id="veh925" type="vType_car_49.23823993503763" route="route_west_to_east" depart="13.60" /><vehicle id="veh929" type="vType_car_58.56893198054724" route="route_west_to_east" depart="14.61" /><vehicle id="veh930" type="vType_car_25.11934595610984" route="route_west_to_north" depart="15.55" /><vehicle id="veh933" type="vType_car_47.3314900541119" route="route_west_to_east" depart="16.28" /><vehicle id="veh938" type="vType_car_10.571851112729984" route="route_west_to_north" depart="20.18" /><vehicle id="veh940" type="vType_car_61.568631209410256" route="route_west_to_east" depart="21.20" /><vehicle id="veh941" type="vType_car_50.14460800488945" route="route_east_to_west" depart="21.52" /><vehicle id="veh942" type="vType_car_12.149511808145533" route="route_south_to_east" depart="22.57" /><vehicle id="veh947" type="vType_car_12.542365228399563" route="route_east_to_north" depart="25.21" /><vehicle id="veh952" type="vType_car_60.346483537406975" route="route_west_to_east" depart="26.23" /><vehicle id="veh956" type="vType_car_54.84517050429911" route="route_east_to_west" depart="27.38" /><vehicle id="veh965" type="vType_bus_51.85592943460267" route="route_east_to_west" depart="32.05" /><vehicle id="veh972" type="vType_car_45.79172333851003" route="route_east_to_west" depart="34.22" /><vehicle id="veh978" type="vType_car_16.074729130121508" route="route_south_to_east" depart="37.19" /><vehicle id="veh981" type="vType_car_54.826932363727714" route="route_east_to_west" depart="38.09" /><vehicle id="veh982" type="vType_car_60.461834028552424" route="route_east_to_west" depart="39.72" /><vehicle id="veh988" type="vType_car_46.180062155475525" route="route_east_to_west" depart="43.12" /><vehicle id="veh984" type="vType_car_17.86641644282634" route="route_west_to_north" depart="43.41" /><vehicle id="veh1002" type="vType_car_44.353105871314774" route="route_east_to_west" depart="47.96" /><vehicle id="veh1006" type="vType_car_15.716923671089571" route="route_east_to_south" depart="50.68" /><vehicle id="veh1011" type="vType_car_21.915813719967378" route="route_west_to_north" depart="51.18" /><vehicle id="veh1018" type="vType_car_20.302805165418015" route="route_south_to_east" depart="54.37" /></routes>