<?xml version='1.0' encoding='utf-8'?>
<routes><vType id="vType_car_11.672424684866575" accel="1.0" decel="5.0" sigma="0.0" length="4.5" maxSpeed="3.242340190240715" /><vType id="vType_car_8.692900699213498" accel="1.0" decel="5.0" sigma="0.0" length="4.5" maxSpeed="2.414694638670416" /><vType id="vType_car_31.00349194249564" accel="1.0" decel="5.0" sigma="0.0" length="4.5" maxSpeed="8.612081095137677" /><vType id="vType_car_6.618310592526096" accel="1.0" decel="5.0" sigma="0.0" length="4.5" maxSpeed="1.8384196090350267" /><vType id="vType_car_4.52023894216601" accel="1.0" decel="5.0" sigma="0.0" length="4.5" maxSpeed="1.2556219283794472" /><vType id="vType_car_28.13374943831675" accel="1.0" decel="5.0" sigma="0.0" length="4.5" maxSpeed="7.814930399532431" /><vType id="vType_car_4.346400059522631" accel="1.0" decel="5.0" sigma="0.0" length="4.5" maxSpeed="1.2073333498673975" /><vType id="vType_bus_43.424490127048294" accel="1.0" decel="5.0" sigma="0.0" length="13" maxSpeed="12.062358368624526" /><vType id="vType_car_3.462835829204482" accel="1.0" decel="5.0" sigma="0.0" length="4.5" maxSpeed="0.9618988414456895" /><vType id="vType_car_20.587802420727147" accel="1.0" decel="5.0" sigma="0.0" length="4.5" maxSpeed="5.71883400575754" /><vType id="vType_truck_30.475813390298864" accel="1.0" decel="5.0" sigma="0.0" length="8" maxSpeed="8.465503719527462" /><vType id="vType_car_33.59058559498235" accel="1.0" decel="5.0" sigma="0.0" length="4.5" maxSpeed="9.33071822082843" /><vType id="vType_car_3.77763908640489" accel="1.0" decel="5.0" sigma="0.0" length="4.5" maxSpeed="1.049344190668025" /><vType id="vType_car_28.50696194837256" accel="1.0" decel="5.0" sigma="0.0" length="4.5" maxSpeed="7.9186005412146" /><vType id="vType_car_31.771228236794318" accel="1.0" decel="5.0" sigma="0.0" length="4.5" maxSpeed="8.82534117688731" /><vType id="vType_car_18.063518108392472" accel="1.0" decel="5.0" sigma="0.0" length="4.5" maxSpeed="5.0176439189979085" /><vType id="vType_car_19.623179675005858" accel="1.0" decel="5.0" sigma="0.0" length="4.5" maxSpeed="5.4508832430571825" /><vType id="vType_car_4.07392450494645" accel="1.0" decel="5.0" sigma="0.0" length="4.5" maxSpeed="1.1316456958184582" /><vType id="vType_car_18.90800805708574" accel="1.0" decel="5.0" sigma="0.0" length="4.5" maxSpeed="5.252224460301595" /><vType id="vType_car_26.127206774685707" accel="1.0" decel="5.0" sigma="0.0" length="4.5" maxSpeed="7.2575574374126965" /><vType id="vType_car_27.051168092028632" accel="1.0" decel="5.0" sigma="0.0" length="4.5" maxSpeed="7.514213358896842" /><vType id="vType_car_25.889257232615762" accel="1.0" decel="5.0" sigma="0.0" length="4.5" maxSpeed="7.191460342393267" /><vType id="vType_car_20.77410807436281" accel="1.0" decel="5.0" sigma="0.0" length="4.5" maxSpeed="5.770585576211892" /><vType id="vType_car_3.892112998114129" accel="1.0" decel="5.0" sigma="0.0" length="4.5" maxSpeed="1.081142499476147" /><vType id="vType_car_24.73065466921226" accel="1.0" decel="5.0" sigma="0.0" length="4.5" maxSpeed="6.869626297003405" /><vType id="vType_car_75.26892556461921" accel="1.0" decel="5.0" sigma="0.0" length="4.5" maxSpeed="20.908034879060892" /><vType id="vType_car_30.776982200399353" accel="1.0" decel="5.0" sigma="0.0" length="4.5" maxSpeed="8.549161722333153" /><vType id="vType_car_20.376374301349482" accel="1.0" decel="5.0" sigma="0.0" length="4.5" maxSpeed="5.660103972597079" /><vType id="vType_car_21.611186048110167" accel="1.0" decel="5.0" sigma="0.0" length="4.5" maxSpeed="6.003107235586157" /><vType id="vType_car_13.722901320741842" accel="1.0" decel="5.0" sigma="0.0" length="4.5" maxSpeed="3.8119170335394004" /><vType id="vType_car_2.833229314803668" accel="1.0" decel="5.0" sigma="0.0" length="4.5" maxSpeed="0.7870081430010188" /><vType id="vType_car_22.11132295405301" accel="1.0" decel="5.0" sigma="0.0" length="4.5" maxSpeed="6.142034153903613" /><vType id="vType_car_22.287255817913348" accel="1.0" decel="5.0" sigma="0.0" length="4.5" maxSpeed="6.190904393864819" /><vType id="vType_car_2.1286696439265653" accel="1.0" decel="5.0" sigma="0.0" length="4.5" maxSpeed="0.5912971233129348" /><vType id="vType_car_26.971189065561898" accel="1.0" decel="5.0" sigma="0.0" length="4.5" maxSpeed="7.491996962656082" /><vType id="vType_car_4.641031308040405" accel="1.0" decel="5.0" sigma="0.0" length="4.5" maxSpeed="1.2891753633445568" /><vType id="vType_car_3.7070545479365924" accel="1.0" decel="5.0" sigma="0.0" length="4.5" maxSpeed="1.0297373744268312" /><vType id="vType_car_20.030645887298782" accel="1.0" decel="5.0" sigma="0.0" length="4.5" maxSpeed="5.564068302027439" /><vType id="vType_car_0.7555278172809782" accel="1.0" decel="5.0" sigma="0.0" length="4.5" maxSpeed="0.20986883813360505" /><vType id="vType_car_3.9622657736339546" accel="1.0" decel="5.0" sigma="0.0" length="4.5" maxSpeed="1.1006293815649875" /><vType id="vType_car_35.73217542860899" accel="1.0" decel="5.0" sigma="0.0" length="4.5" maxSpeed="9.925604285724718" /><vType id="vType_car_20.19365306408308" accel="1.0" decel="5.0" sigma="0.0" length="4.5" maxSpeed="5.6093480733564105" /><vType id="vType_car_20.12846325391799" accel="1.0" decel="5.0" sigma="0.0" length="4.5" maxSpeed="5.591239792754997" /><vType id="vType_car_35.811154657258825" accel="1.0" decel="5.0" sigma="0.0" length="4.5" maxSpeed="9.947542960349674" /><vType id="vType_car_3.7776390864048897" accel="1.0" decel="5.0" sigma="0.0" length="4.5" maxSpeed="1.049344190668025" /><vType id="vType_car_22.562732304177988" accel="1.0" decel="5.0" sigma="0.0" length="4.5" maxSpeed="6.267425640049441" /><vType id="vType_car_41.197798846470654" accel="1.0" decel="5.0" sigma="0.0" length="4.5" maxSpeed="11.443833012908515" /><vType id="vType_car_4.572142545053538" accel="1.0" decel="5.0" sigma="0.0" length="4.5" maxSpeed="1.270039595848205" /><vType id="vType_car_14.812490426993985" accel="1.0" decel="5.0" sigma="0.0" length="4.5" maxSpeed="4.114580674164996" /><vType id="vType_car_7.015004715638839" accel="1.0" decel="5.0" sigma="0.0" length="4.5" maxSpeed="1.9486124210107887" /><vType id="vType_car_18.58930049238006" accel="1.0" decel="5.0" sigma="0.0" length="4.5" maxSpeed="5.163694581216684" /><vType id="vType_car_7.235210209731625" accel="1.0" decel="5.0" sigma="0.0" length="4.5" maxSpeed="2.0097806138143404" /><vType id="vType_car_3.7776390864048905" accel="1.0" decel="5.0" sigma="0.0" length="4.5" maxSpeed="1.0493441906680252" /><vType id="vType_car_4.162180963721369" accel="1.0" decel="5.0" sigma="0.0" length="4.5" maxSpeed="1.1561613788114913" /><vType id="vType_car_20.108075302125012" accel="1.0" decel="5.0" sigma="0.0" length="4.5" maxSpeed="5.5855764728125035" /><vType id="vType_car_43.6526909822035" accel="1.0" decel="5.0" sigma="0.0" length="4.5" maxSpeed="12.125747495056528" /><vType id="vType_car_22.99404273280185" accel="1.0" decel="5.0" sigma="0.0" length="4.5" maxSpeed="6.387234092444959" /><vType id="vType_car_33.03852762875759" accel="1.0" decel="5.0" sigma="0.0" length="4.5" maxSpeed="9.177368785765998" /><vType id="vType_car_8.211096714955412" accel="1.0" decel="5.0" sigma="0.0" length="4.5" maxSpeed="2.2808601985987256" /><vType id="vType_car_4.299222200851428" accel="1.0" decel="5.0" sigma="0.0" length="4.5" maxSpeed="1.1942283891253966" /><vType id="vType_car_26.554228061472486" accel="1.0" decel="5.0" sigma="0.0" length="4.5" maxSpeed="7.376174461520135" /><vType id="vType_car_4.000583991117829" accel="1.0" decel="5.0" sigma="0.0" length="4.5" maxSpeed="1.1112733308660636" /><vType id="vType_car_24.27648326252635" accel="1.0" decel="5.0" sigma="0.0" length="4.5" maxSpeed="6.743467572923986" /><vType id="vType_car_3.746574959651054" accel="1.0" decel="5.0" sigma="0.0" length="4.5" maxSpeed="1.0407152665697372" /><vType id="vType_car_8.484438242419134" accel="1.0" decel="5.0" sigma="0.0" length="4.5" maxSpeed="2.3567884006719817" /><vType id="vType_car_26.91982513689006" accel="1.0" decel="5.0" sigma="0.0" length="4.5" maxSpeed="7.477729204691683" /><vType id="vType_car_10.248443876158165" accel="1.0" decel="5.0" sigma="0.0" length="4.5" maxSpeed="2.84678996559949" /><vType id="vType_car_9.628665012989018" accel="1.0" decel="5.0" sigma="0.0" length="4.5" maxSpeed="2.674629170274727" /><vType id="vType_car_22.88073815421709" accel="1.0" decel="5.0" sigma="0.0" length="4.5" maxSpeed="6.355760598393636" /><vType id="vType_car_33.09368909665275" accel="1.0" decel="5.0" sigma="0.0" length="4.5" maxSpeed="9.192691415736876" /><vType id="vType_car_10.557074846714414" accel="1.0" decel="5.0" sigma="0.0" length="4.5" maxSpeed="2.932520790754004" /><vType id="vType_car_7.466026985610692" accel="1.0" decel="5.0" sigma="0.0" length="4.5" maxSpeed="2.073896384891859" /><vType id="vType_car_21.207708923867504" accel="1.0" decel="5.0" sigma="0.0" length="4.5" maxSpeed="5.891030256629862" /><vType id="vType_car_10.976291010979319" accel="1.0" decel="5.0" sigma="0.0" length="4.5" maxSpeed="3.0489697252720327" /><vType id="vType_car_3.7766110539701407" accel="1.0" decel="5.0" sigma="0.0" length="4.5" maxSpeed="1.0490586261028167" /><vType id="vType_car_14.951883630355788" accel="1.0" decel="5.0" sigma="0.0" length="4.5" maxSpeed="4.153301008432163" /><vType id="vType_car_9.469207644795565" accel="1.0" decel="5.0" sigma="0.0" length="4.5" maxSpeed="2.630335456887657" /><route id="route_north_to_east" edges="north_to_center center_to_east" /><route id="route_north_to_south" edges="north_to_center center_to_south" /><route id="route_north_to_west" edges="north_to_center center_to_west" /><route id="route_east_to_west" edges="east_to_center center_to_west" /><route id="route_east_to_south" edges="east_to_center center_to_south" /><route id="route_east_to_north" edges="east_to_center center_to_north" /><route id="route_south_to_west" edges="south_to_center center_to_west" /><route id="route_south_to_north" edges="south_to_center center_to_north" /><route id="route_south_to_east" edges="south_to_center center_to_east" /><route id="route_west_to_south" edges="west_to_center center_to_south" /><route id="route_west_to_north" edges="west_to_center center_to_north" /><route id="route_west_to_east" edges="west_to_center center_to_east" /><vehicle id="veh4" type="vType_car_31.00349194249564" route="route_north_to_west" depart="0.03" /><vehicle id="veh5" type="vType_car_6.618310592526096" route="route_east_to_north" depart="0.03" /><vehicle id="veh7" type="vType_car_28.13374943831675" route="route_north_to_south" depart="0.03" /><vehicle id="veh14" type="vType_car_33.59058559498235" route="route_south_to_north" depart="1.00" /><vehicle id="veh16" type="vType_car_28.50696194837256" route="route_north_to_south" depart="2.47" /><vehicle id="veh17" type="vType_car_31.771228236794318" route="route_south_to_north" depart="3.84" /><vehicle id="veh22" type="vType_car_19.623179675005858" route="route_north_to_west" depart="4.27" /><vehicle id="veh24" type="vType_car_18.90800805708574" route="route_south_to_north" depart="5.47" /><vehicle id="veh26" type="vType_car_26.127206774685707" route="route_south_to_north" depart="6.27" /><vehicle id="veh30" type="vType_car_27.051168092028632" route="route_north_to_south" depart="6.87" /><vehicle id="veh31" type="vType_car_25.889257232615762" route="route_north_to_south" depart="6.97" /><vehicle id="veh35" type="vType_car_24.73065466921226" route="route_south_to_north" depart="9.37" /><vehicle id="veh41" type="vType_car_30.776982200399353" route="route_south_to_north" depart="10.44" /><vehicle id="veh45" type="vType_car_21.611186048110167" route="route_south_to_north" depart="12.31" /><vehicle id="veh46" type="vType_car_13.722901320741842" route="route_north_to_west" depart="12.77" /><vehicle id="veh50" type="vType_car_22.11132295405301" route="route_south_to_north" depart="13.31" /><vehicle id="veh54" type="vType_car_26.971189065561898" route="route_south_to_north" depart="14.94" /><vehicle id="veh64" type="vType_car_35.73217542860899" route="route_south_to_west" depart="18.78" /><vehicle id="veh69" type="vType_car_20.12846325391799" route="route_south_to_north" depart="21.11" /><vehicle id="veh79" type="vType_car_41.197798846470654" route="route_south_to_west" depart="23.48" /><vehicle id="veh81" type="vType_car_14.812490426993985" route="route_west_to_south" depart="25.05" /><vehicle id="veh86" type="vType_car_7.015004715638839" route="route_east_to_north" depart="26.72" /><vehicle id="veh87" type="vType_car_18.58930049238006" route="route_west_to_north" depart="26.92" /><vehicle id="veh88" type="vType_car_7.235210209731625" route="route_east_to_north" depart="28.12" /><vehicle id="veh91" type="vType_car_20.108075302125012" route="route_east_to_west" depart="29.52" /><vehicle id="veh94" type="vType_car_43.6526909822035" route="route_west_to_east" depart="32.19" /><vehicle id="veh96" type="vType_car_22.99404273280185" route="route_west_to_north" depart="32.39" /><vehicle id="veh97" type="vType_car_33.03852762875759" route="route_east_to_west" depart="33.85" /><vehicle id="veh98" type="vType_car_8.211096714955412" route="route_east_to_north" depart="33.99" /><vehicle id="veh104" type="vType_car_26.554228061472486" route="route_west_to_north" depart="35.62" /><vehicle id="veh107" type="vType_car_24.27648326252635" route="route_west_to_north" depart="37.59" /><vehicle id="veh109" type="vType_car_8.484438242419134" route="route_east_to_north" depart="44.89" /><vehicle id="veh110" type="vType_car_26.91982513689006" route="route_east_to_west" depart="47.36" /><vehicle id="veh111" type="vType_car_10.248443876158165" route="route_east_to_north" depart="47.86" /><vehicle id="veh113" type="vType_car_9.628665012989018" route="route_east_to_north" depart="50.13" /><vehicle id="veh115" type="vType_car_33.09368909665275" route="route_east_to_west" depart="52.97" /><vehicle id="veh116" type="vType_car_10.557074846714414" route="route_east_to_north" depart="53.07" /></routes>