<?xml version="1.0" encoding="utf-8"?>
<net>
	<junction id="J0" type="priority" x="0" y="0" incLanes="" intLanes="" shape="0,1.60 0,-1.60" />
	<junction id="J1" type="priority" x="100" y="0" incLanes="" intLanes="" shape="100,1.60 100,-1.60" />
	<junction id="J2" type="priority" x="200" y="0" incLanes="" intLanes="" shape="200,1.60 200,-1.60" />
	<junction id="J3" type="priority" x="300" y="0" incLanes="" intLanes="" shape="300,1.60 300,-1.60" />
	<junction id="J4" type="priority" x="400" y="0" incLanes="" intLanes="" shape="400,1.60 400,-1.60" />
	<edge id="E0" from_="J0" to="J1" priority="1">
		<lane id="E0_0" index="0" speed="13.89" length="100" />
	</edge>
	<edge id="E1" from_="J1" to="J2" priority="1">
		<lane id="E1_0" index="0" speed="13.89" length="100" />
	</edge>
	<edge id="E2" from_="J2" to="J3" priority="1">
		<lane id="E2_0" index="0" speed="13.89" length="100" />
	</edge>
	<edge id="E3" from_="J3" to="J4" priority="1">
		<lane id="E3_0" index="0" speed="13.89" length="100" />
	</edge>
</net>
