<?xml version='1.0' encoding='utf-8'?>
<routes><vType id="vType_car_15.502652090223638" accel="1.0" decel="5.0" sigma="0.0" length="4.5" maxSpeed="4.306292247284344" /><vType id="vType_car_14.942122535138807" accel="1.0" decel="5.0" sigma="0.0" length="4.5" maxSpeed="4.1505895930941135" /><vType id="vType_car_12.02283537002996" accel="1.0" decel="5.0" sigma="0.0" length="4.5" maxSpeed="3.3396764916749886" /><vType id="vType_car_13.574515107676559" accel="1.0" decel="5.0" sigma="0.0" length="4.5" maxSpeed="3.770698641021266" /><vType id="vType_car_13.405929251812063" accel="1.0" decel="5.0" sigma="0.0" length="4.5" maxSpeed="3.723869236614462" /><vType id="vType_car_13.164501512374287" accel="1.0" decel="5.0" sigma="0.0" length="4.5" maxSpeed="3.656805975659524" /><vType id="vType_car_17.026539574639287" accel="1.0" decel="5.0" sigma="0.0" length="4.5" maxSpeed="4.729594326288691" /><vType id="vType_car_4.322970084654278" accel="1.0" decel="5.0" sigma="0.0" length="4.5" maxSpeed="1.2008250235150773" /><vType id="vType_car_15.459387216690457" accel="1.0" decel="5.0" sigma="0.0" length="4.5" maxSpeed="4.294274226858461" /><vType id="vType_car_31.267983038444374" accel="1.0" decel="5.0" sigma="0.0" length="4.5" maxSpeed="8.685550844012326" /><vType id="vType_car_10.684606013389773" accel="1.0" decel="5.0" sigma="0.0" length="4.5" maxSpeed="2.9679461148304926" /><vType id="vType_car_13.3402047052755" accel="1.0" decel="5.0" sigma="0.0" length="4.5" maxSpeed="3.705612418132083" /><vType id="vType_car_14.646920884709239" accel="1.0" decel="5.0" sigma="0.0" length="4.5" maxSpeed="4.0685891346414556" /><vType id="vType_car_11.841527360133643" accel="1.0" decel="5.0" sigma="0.0" length="4.5" maxSpeed="3.2893131555926787" /><vType id="vType_car_18.14085640712893" accel="1.0" decel="5.0" sigma="0.0" length="4.5" maxSpeed="5.0391267797580355" /><vType id="vType_car_33.66155771595151" accel="1.0" decel="5.0" sigma="0.0" length="4.5" maxSpeed="9.35043269887542" /><vType id="vType_car_20.78420800702212" accel="1.0" decel="5.0" sigma="0.0" length="4.5" maxSpeed="5.7733911130617" /><vType id="vType_car_10.06534009549127" accel="1.0" decel="5.0" sigma="0.0" length="4.5" maxSpeed="2.7959278043031306" /><vType id="vType_car_3.8316205362380655" accel="1.0" decel="5.0" sigma="0.0" length="4.5" maxSpeed="1.064339037843907" /><vType id="vType_car_3.4832913965800594" accel="1.0" decel="5.0" sigma="0.0" length="4.5" maxSpeed="0.9675809434944609" /><vType id="vType_car_3.4832913965800585" accel="1.0" decel="5.0" sigma="0.0" length="4.5" maxSpeed="0.9675809434944607" /><vType id="vType_car_1.821802728187862" accel="1.0" decel="5.0" sigma="0.0" length="4.5" maxSpeed="0.5060563133855172" /><vType id="vType_car_2.999500924832829" accel="1.0" decel="5.0" sigma="0.0" length="4.5" maxSpeed="0.8331947013424524" /><vType id="vType_car_4.204704665660549" accel="1.0" decel="5.0" sigma="0.0" length="4.5" maxSpeed="1.1679735182390414" /><vType id="vType_car_16.35604087041486" accel="1.0" decel="5.0" sigma="0.0" length="4.5" maxSpeed="4.54334468622635" /><vType id="vType_car_15.062346288454117" accel="1.0" decel="5.0" sigma="0.0" length="4.5" maxSpeed="4.183985080126144" /><vType id="vType_car_0.4354114245725074" accel="1.0" decel="5.0" sigma="0.0" length="4.5" maxSpeed="0.12094761793680761" /><vType id="vType_car_16.019890128359382" accel="1.0" decel="5.0" sigma="0.0" length="4.5" maxSpeed="4.449969480099829" /><vType id="vType_car_16.716542520062774" accel="1.0" decel="5.0" sigma="0.0" length="4.5" maxSpeed="4.64348403335077" /><vType id="vType_car_19.84638050720141" accel="1.0" decel="5.0" sigma="0.0" length="4.5" maxSpeed="5.512883474222614" /><vType id="vType_car_13.737599195636065" accel="1.0" decel="5.0" sigma="0.0" length="4.5" maxSpeed="3.8159997765655733" /><vType id="vType_car_21.64883886020716" accel="1.0" decel="5.0" sigma="0.0" length="4.5" maxSpeed="6.013566350057545" /><vType id="vType_car_15.6961264612103" accel="1.0" decel="5.0" sigma="0.0" length="4.5" maxSpeed="4.360035128113972" /><vType id="vType_car_20.357291646566225" accel="1.0" decel="5.0" sigma="0.0" length="4.5" maxSpeed="5.654803235157284" /><vType id="vType_car_19.652287329764256" accel="1.0" decel="5.0" sigma="0.0" length="4.5" maxSpeed="5.458968702712293" /><vType id="vType_car_3.9404700463307063" accel="1.0" decel="5.0" sigma="0.0" length="4.5" maxSpeed="1.0945750128696405" /><vType id="vType_car_24.78926499553618" accel="1.0" decel="5.0" sigma="0.0" length="4.5" maxSpeed="6.885906943204494" /><vType id="vType_truck_36.6883904081581" accel="1.0" decel="5.0" sigma="0.0" length="8" maxSpeed="10.191219557821695" /><vType id="vType_car_28.42634966295274" accel="1.0" decel="5.0" sigma="0.0" length="4.5" maxSpeed="7.896208239709095" /><vType id="vType_car_19.202237073504318" accel="1.0" decel="5.0" sigma="0.0" length="4.5" maxSpeed="5.333954742640088" /><vType id="vType_car_7.285545957511206" accel="1.0" decel="5.0" sigma="0.0" length="4.5" maxSpeed="2.023762765975335" /><vType id="vType_car_26.971151019951336" accel="1.0" decel="5.0" sigma="0.0" length="4.5" maxSpeed="7.491986394430926" /><vType id="vType_car_30.714371288479324" accel="1.0" decel="5.0" sigma="0.0" length="4.5" maxSpeed="8.531769802355367" /><vType id="vType_car_3.36933429116633" accel="1.0" decel="5.0" sigma="0.0" length="4.5" maxSpeed="0.9359261919906472" /><vType id="vType_car_18.852938678310977" accel="1.0" decel="5.0" sigma="0.0" length="4.5" maxSpeed="5.236927410641938" /><vType id="vType_truck_66.6847913429561" accel="1.0" decel="5.0" sigma="0.0" length="8" maxSpeed="18.52355315082114" /><vType id="vType_car_28.300332548467395" accel="1.0" decel="5.0" sigma="0.0" length="4.5" maxSpeed="7.861203485685388" /><vType id="vType_car_27.993018331720222" accel="1.0" decel="5.0" sigma="0.0" length="4.5" maxSpeed="7.775838425477839" /><vType id="vType_car_7.905659533491123" accel="1.0" decel="5.0" sigma="0.0" length="4.5" maxSpeed="2.1960165370808675" /><vType id="vType_car_17.56784080626703" accel="1.0" decel="5.0" sigma="0.0" length="4.5" maxSpeed="4.879955779518619" /><vType id="vType_car_17.498715034226315" accel="1.0" decel="5.0" sigma="0.0" length="4.5" maxSpeed="4.860754176173976" /><vType id="vType_car_33.928749597045766" accel="1.0" decel="5.0" sigma="0.0" length="4.5" maxSpeed="9.424652665846045" /><vType id="vType_car_26.183633072064133" accel="1.0" decel="5.0" sigma="0.0" length="4.5" maxSpeed="7.273231408906703" /><vType id="vType_car_24.9244040202383" accel="1.0" decel="5.0" sigma="0.0" length="4.5" maxSpeed="6.923445561177305" /><vType id="vType_car_3.061563632937388" accel="1.0" decel="5.0" sigma="0.0" length="4.5" maxSpeed="0.8504343424826077" /><vType id="vType_car_30.970811013408802" accel="1.0" decel="5.0" sigma="0.0" length="4.5" maxSpeed="8.603003059280223" /><vType id="vType_car_47.96455304112897" accel="1.0" decel="5.0" sigma="0.0" length="4.5" maxSpeed="13.323486955869159" /><vType id="vType_car_28.482438365962338" accel="1.0" decel="5.0" sigma="0.0" length="4.5" maxSpeed="7.911788434989538" /><vType id="vType_car_21.991475655735865" accel="1.0" decel="5.0" sigma="0.0" length="4.5" maxSpeed="6.108743237704407" /><vType id="vType_car_29.815666674975898" accel="1.0" decel="5.0" sigma="0.0" length="4.5" maxSpeed="8.28212963193775" /><vType id="vType_car_40.07556768301109" accel="1.0" decel="5.0" sigma="0.0" length="4.5" maxSpeed="11.132102134169747" /><vType id="vType_car_4.92832488431756" accel="1.0" decel="5.0" sigma="0.0" length="4.5" maxSpeed="1.3689791345326556" /><vType id="vType_car_6.966582793160118" accel="1.0" decel="5.0" sigma="0.0" length="4.5" maxSpeed="1.9351618869889216" /><vType id="vType_car_6.052156258615367" accel="1.0" decel="5.0" sigma="0.0" length="4.5" maxSpeed="1.6811545162820465" /><vType id="vType_car_6.0256097415930805" accel="1.0" decel="5.0" sigma="0.0" length="4.5" maxSpeed="1.6737804837758556" /><vType id="vType_car_7.3619163189323915" accel="1.0" decel="5.0" sigma="0.0" length="4.5" maxSpeed="2.0449767552589977" /><vType id="vType_car_5.209002787056728" accel="1.0" decel="5.0" sigma="0.0" length="4.5" maxSpeed="1.446945218626869" /><vType id="vType_car_5.73331510755611" accel="1.0" decel="5.0" sigma="0.0" length="4.5" maxSpeed="1.5925875298766972" /><route id="route_north_to_east" edges="north_to_center center_to_east" /><route id="route_north_to_south" edges="north_to_center center_to_south" /><route id="route_north_to_west" edges="north_to_center center_to_west" /><route id="route_east_to_west" edges="east_to_center center_to_west" /><route id="route_east_to_south" edges="east_to_center center_to_south" /><route id="route_east_to_north" edges="east_to_center center_to_north" /><route id="route_south_to_west" edges="south_to_center center_to_west" /><route id="route_south_to_north" edges="south_to_center center_to_north" /><route id="route_south_to_east" edges="south_to_center center_to_east" /><route id="route_west_to_south" edges="west_to_center center_to_south" /><route id="route_west_to_north" edges="west_to_center center_to_north" /><route id="route_west_to_east" edges="west_to_center center_to_east" /><vehicle id="veh883" type="vType_car_15.502652090223638" route="route_south_to_north" depart="0.04" /><vehicle id="veh908" type="vType_car_14.942122535138807" route="route_north_to_south" depart="0.04" /><vehicle id="veh903" type="vType_car_12.02283537002996" route="route_north_to_south" depart="0.04" /><vehicle id="veh913" type="vType_car_13.574515107676559" route="route_north_to_east" depart="0.04" /><vehicle id="veh917" type="vType_car_13.405929251812063" route="route_north_to_east" depart="0.04" /><vehicle id="veh958" type="vType_car_13.164501512374287" route="route_north_to_east" depart="0.04" /><vehicle id="veh912" type="vType_car_17.026539574639287" route="route_north_to_south" depart="0.04" /><vehicle id="veh1003" type="vType_car_31.267983038444374" route="route_south_to_west" depart="0.04" /><vehicle id="veh892" type="vType_car_14.646920884709239" route="route_south_to_north" depart="0.04" /><vehicle id="veh1026" type="vType_car_18.14085640712893" route="route_east_to_south" depart="0.04" /><vehicle id="veh1029" type="vType_car_20.78420800702212" route="route_west_to_north" depart="0.04" /><vehicle id="veh1046" type="vType_car_16.35604087041486" route="route_north_to_east" depart="14.18" /><vehicle id="veh1052" type="vType_car_16.019890128359382" route="route_north_to_west" depart="20.22" /><vehicle id="veh1053" type="vType_car_16.716542520062774" route="route_south_to_north" depart="21.02" /><vehicle id="veh1055" type="vType_car_19.84638050720141" route="route_north_to_south" depart="21.52" /><vehicle id="veh1058" type="vType_car_21.64883886020716" route="route_north_to_south" depart="24.49" /><vehicle id="veh1059" type="vType_car_15.6961264612103" route="route_north_to_west" depart="26.26" /><vehicle id="veh1060" type="vType_car_20.357291646566225" route="route_north_to_south" depart="26.80" /><vehicle id="veh1063" type="vType_car_19.652287329764256" route="route_north_to_west" depart="29.37" /><vehicle id="veh1066" type="vType_car_24.78926499553618" route="route_north_to_south" depart="29.63" /><vehicle id="veh1069" type="vType_truck_36.6883904081581" route="route_south_to_north" depart="30.17" /><vehicle id="veh1070" type="vType_car_28.42634966295274" route="route_south_to_north" depart="31.04" /><vehicle id="veh1074" type="vType_car_19.202237073504318" route="route_north_to_west" depart="31.87" /><vehicle id="veh1077" type="vType_car_26.971151019951336" route="route_north_to_south" depart="32.23" /><vehicle id="veh1078" type="vType_car_30.714371288479324" route="route_south_to_north" depart="32.77" /><vehicle id="veh1080" type="vType_car_18.852938678310977" route="route_north_to_west" depart="33.86" /><vehicle id="veh1083" type="vType_car_28.300332548467395" route="route_north_to_south" depart="34.29" /><vehicle id="veh1089" type="vType_car_27.993018331720222" route="route_south_to_north" depart="35.52" /><vehicle id="veh1094" type="vType_car_17.56784080626703" route="route_north_to_east" depart="36.50" /><vehicle id="veh1096" type="vType_car_17.498715034226315" route="route_north_to_west" depart="37.47" /><vehicle id="veh1097" type="vType_car_33.928749597045766" route="route_south_to_north" depart="37.69" /><vehicle id="veh1099" type="vType_car_26.183633072064133" route="route_north_to_south" depart="37.84" /><vehicle id="veh1102" type="vType_car_24.9244040202383" route="route_north_to_south" depart="39.57" /><vehicle id="veh1105" type="vType_car_30.970811013408802" route="route_north_to_south" depart="43.70" /><vehicle id="veh1107" type="vType_car_47.96455304112897" route="route_south_to_north" depart="44.09" /><vehicle id="veh1111" type="vType_car_21.991475655735865" route="route_south_to_east" depart="48.29" /><vehicle id="veh1112" type="vType_car_29.815666674975898" route="route_south_to_west" depart="48.36" /><vehicle id="veh1114" type="vType_car_40.07556768301109" route="route_north_to_south" depart="49.05" /></routes>