<?xml version='1.0' encoding='utf-8'?>
<routes><vType id="vType_car_18.500886657557896" accel="1.0" decel="5.0" sigma="0.0" length="4.5" maxSpeed="5.139135182654971" /><vType id="vType_car_55.90982808584698" accel="1.0" decel="5.0" sigma="0.0" length="4.5" maxSpeed="15.530507801624161" /><vType id="vType_car_41.46556054594615" accel="1.0" decel="5.0" sigma="0.0" length="4.5" maxSpeed="11.518211262762819" /><vType id="vType_car_14.149008590588194" accel="1.0" decel="5.0" sigma="0.0" length="4.5" maxSpeed="3.930280164052276" /><vType id="vType_car_3.7579623242877083" accel="1.0" decel="5.0" sigma="0.0" length="4.5" maxSpeed="1.0438784234132523" /><vType id="vType_car_23.142128373686997" accel="1.0" decel="5.0" sigma="0.0" length="4.5" maxSpeed="6.4283689926908325" /><vType id="vType_car_36.87643938619963" accel="1.0" decel="5.0" sigma="0.0" length="4.5" maxSpeed="10.243455385055452" /><vType id="vType_car_16.93550679329459" accel="1.0" decel="5.0" sigma="0.0" length="4.5" maxSpeed="4.70430744258183" /><vType id="vType_car_16.85446231217499" accel="1.0" decel="5.0" sigma="0.0" length="4.5" maxSpeed="4.681795086715275" /><vType id="vType_car_15.940865440406467" accel="1.0" decel="5.0" sigma="0.0" length="4.5" maxSpeed="4.428018177890685" /><vType id="vType_car_21.334624064997232" accel="1.0" decel="5.0" sigma="0.0" length="4.5" maxSpeed="5.926284462499231" /><vType id="vType_car_5.2362974060020395" accel="1.0" decel="5.0" sigma="0.0" length="4.5" maxSpeed="1.4545270572227886" /><vType id="vType_truck_4.610629527542765" accel="1.0" decel="5.0" sigma="0.0" length="8" maxSpeed="1.280730424317435" /><vType id="vType_car_24.711942342721557" accel="1.0" decel="5.0" sigma="0.0" length="4.5" maxSpeed="6.864428428533765" /><vType id="vType_car_26.15800640849816" accel="1.0" decel="5.0" sigma="0.0" length="4.5" maxSpeed="7.266112891249489" /><vType id="vType_car_25.04206331268198" accel="1.0" decel="5.0" sigma="0.0" length="4.5" maxSpeed="6.956128697967216" /><vType id="vType_truck_0.3416329385716098" accel="1.0" decel="5.0" sigma="0.0" length="8" maxSpeed="0.09489803849211384" /><vType id="vType_car_13.794927049360606" accel="1.0" decel="5.0" sigma="0.0" length="4.5" maxSpeed="3.831924180377946" /><vType id="vType_car_18.341228697024093" accel="1.0" decel="5.0" sigma="0.0" length="4.5" maxSpeed="5.094785749173359" /><vType id="vType_car_15.49119205486199" accel="1.0" decel="5.0" sigma="0.0" length="4.5" maxSpeed="4.30310890412833" /><vType id="vType_car_28.27959805855096" accel="1.0" decel="5.0" sigma="0.0" length="4.5" maxSpeed="7.855443905153044" /><vType id="vType_car_15.407334848550738" accel="1.0" decel="5.0" sigma="0.0" length="4.5" maxSpeed="4.279815235708538" /><vType id="vType_car_39.64754566398281" accel="1.0" decel="5.0" sigma="0.0" length="4.5" maxSpeed="11.013207128884114" /><vType id="vType_car_6.128053867388913" accel="1.0" decel="5.0" sigma="0.0" length="4.5" maxSpeed="1.7022371853858091" /><vType id="vType_car_6.789458968496085" accel="1.0" decel="5.0" sigma="0.0" length="4.5" maxSpeed="1.8859608245822457" /><vType id="vType_car_6.031574319663201" accel="1.0" decel="5.0" sigma="0.0" length="4.5" maxSpeed="1.6754373110175558" /><vType id="vType_car_15.378176519305166" accel="1.0" decel="5.0" sigma="0.0" length="4.5" maxSpeed="4.2717156998069905" /><vType id="vType_car_1.8789811621438541" accel="1.0" decel="5.0" sigma="0.0" length="4.5" maxSpeed="0.5219392117066262" /><vType id="vType_car_5.60359214820948" accel="1.0" decel="5.0" sigma="0.0" length="4.5" maxSpeed="1.5565533745026334" /><vType id="vType_car_4.696148090836522" accel="1.0" decel="5.0" sigma="0.0" length="4.5" maxSpeed="1.3044855807879228" /><vType id="vType_car_32.34308803477217" accel="1.0" decel="5.0" sigma="0.0" length="4.5" maxSpeed="8.984191120770047" /><vType id="vType_car_4.3976180233016064" accel="1.0" decel="5.0" sigma="0.0" length="4.5" maxSpeed="1.221560562028224" /><vType id="vType_car_5.224080239296733" accel="1.0" decel="5.0" sigma="0.0" length="4.5" maxSpeed="1.451133399804648" /><route id="route_north_to_east" edges="north_to_center center_to_east" /><route id="route_north_to_south" edges="north_to_center center_to_south" /><route id="route_north_to_west" edges="north_to_center center_to_west" /><route id="route_east_to_west" edges="east_to_center center_to_west" /><route id="route_east_to_south" edges="east_to_center center_to_south" /><route id="route_east_to_north" edges="east_to_center center_to_north" /><route id="route_south_to_west" edges="south_to_center center_to_west" /><route id="route_south_to_north" edges="south_to_center center_to_north" /><route id="route_south_to_east" edges="south_to_center center_to_east" /><route id="route_west_to_south" edges="west_to_center center_to_south" /><route id="route_west_to_north" edges="west_to_center center_to_north" /><route id="route_west_to_east" edges="west_to_center center_to_east" /><vehicle id="veh47" type="vType_car_18.500886657557896" route="route_east_to_south" depart="0.03" /><vehicle id="veh59" type="vType_car_55.90982808584698" route="route_west_to_east" depart="0.03" /><vehicle id="veh60" type="vType_car_41.46556054594615" route="route_east_to_west" depart="2.98" /><vehicle id="veh61" type="vType_car_14.149008590588194" route="route_east_to_north" depart="12.57" /><vehicle id="veh63" type="vType_car_23.142128373686997" route="route_south_to_west" depart="17.64" /><vehicle id="veh64" type="vType_car_36.87643938619963" route="route_east_to_west" depart="18.71" /><vehicle id="veh66" type="vType_car_16.93550679329459" route="route_south_to_north" depart="25.35" /><vehicle id="veh67" type="vType_car_16.85446231217499" route="route_west_to_north" depart="31.95" /><vehicle id="veh69" type="vType_car_15.940865440406467" route="route_north_to_south" depart="38.29" /><vehicle id="veh70" type="vType_car_21.334624064997232" route="route_east_to_west" depart="41.61" /><vehicle id="veh73" type="vType_car_24.711942342721557" route="route_west_to_east" depart="47.68" /><vehicle id="veh77" type="vType_car_25.04206331268198" route="route_west_to_south" depart="52.00" /><vehicle id="veh83" type="vType_car_13.794927049360606" route="route_north_to_east" depart="67.23" /><vehicle id="veh84" type="vType_car_18.341228697024093" route="route_north_to_west" depart="73.46" /><vehicle id="veh92" type="vType_car_39.64754566398281" route="route_north_to_south" depart="78.19" /><vehicle id="veh99" type="vType_car_15.378176519305166" route="route_south_to_east" depart="95.89" /><vehicle id="veh104" type="vType_car_32.34308803477217" route="route_south_to_north" depart="104.84" /></routes>