<?xml version='1.0' encoding='utf-8'?>
<routes><vType id="vType_car_14.501329017934673" accel="1.0" decel="5.0" sigma="0.0" length="4.5" maxSpeed="4.028146949426298" /><vType id="vType_car_7.565966882132131" accel="1.0" decel="5.0" sigma="0.0" length="4.5" maxSpeed="2.101657467258925" /><vType id="vType_car_21.95587935862218" accel="1.0" decel="5.0" sigma="0.0" length="4.5" maxSpeed="6.09885537739505" /><vType id="vType_car_61.663084407942165" accel="1.0" decel="5.0" sigma="0.0" length="4.5" maxSpeed="17.12863455776171" /><vType id="vType_car_4.669524777677764" accel="1.0" decel="5.0" sigma="0.0" length="4.5" maxSpeed="1.2970902160216011" /><vType id="vType_car_64.85514131677971" accel="1.0" decel="5.0" sigma="0.0" length="4.5" maxSpeed="18.01531703243881" /><vType id="vType_car_10.060640738854328" accel="1.0" decel="5.0" sigma="0.0" length="4.5" maxSpeed="2.7946224274595357" /><vType id="vType_car_22.571531283409186" accel="1.0" decel="5.0" sigma="0.0" length="4.5" maxSpeed="6.269869800946996" /><vType id="vType_car_19.148454084444108" accel="1.0" decel="5.0" sigma="0.0" length="4.5" maxSpeed="5.319015023456696" /><vType id="vType_car_6.5893592021977305" accel="1.0" decel="5.0" sigma="0.0" length="4.5" maxSpeed="1.8303775561660363" /><vType id="vType_car_17.118483398907138" accel="1.0" decel="5.0" sigma="0.0" length="4.5" maxSpeed="4.7551342774742045" /><vType id="vType_car_8.992751557851465" accel="1.0" decel="5.0" sigma="0.0" length="4.5" maxSpeed="2.497986543847629" /><vType id="vType_car_29.416163738646837" accel="1.0" decel="5.0" sigma="0.0" length="4.5" maxSpeed="8.171156594068565" /><vType id="vType_car_26.03276469906822" accel="1.0" decel="5.0" sigma="0.0" length="4.5" maxSpeed="7.23132352751895" /><vType id="vType_car_17.366610175689157" accel="1.0" decel="5.0" sigma="0.0" length="4.5" maxSpeed="4.824058382135877" /><vType id="vType_car_17.390026825295898" accel="1.0" decel="5.0" sigma="0.0" length="4.5" maxSpeed="4.8305630070266385" /><vType id="vType_car_31.195665088303137" accel="1.0" decel="5.0" sigma="0.0" length="4.5" maxSpeed="8.66546252452865" /><vType id="vType_car_15.953914207250751" accel="1.0" decel="5.0" sigma="0.0" length="4.5" maxSpeed="4.43164283534743" /><vType id="vType_car_29.951389151012144" accel="1.0" decel="5.0" sigma="0.0" length="4.5" maxSpeed="8.319830319725595" /><vType id="vType_car_6.509606304260687" accel="1.0" decel="5.0" sigma="0.0" length="4.5" maxSpeed="1.8082239734057461" /><vType id="vType_car_23.453899311247312" accel="1.0" decel="5.0" sigma="0.0" length="4.5" maxSpeed="6.514972030902031" /><vType id="vType_car_14.970204490715588" accel="1.0" decel="5.0" sigma="0.0" length="4.5" maxSpeed="4.158390136309886" /><vType id="vType_car_19.019537537819502" accel="1.0" decel="5.0" sigma="0.0" length="4.5" maxSpeed="5.283204871616529" /><vType id="vType_car_27.57123988151738" accel="1.0" decel="5.0" sigma="0.0" length="4.5" maxSpeed="7.658677744865939" /><vType id="vType_car_5.121393847956873" accel="1.0" decel="5.0" sigma="0.0" length="4.5" maxSpeed="1.4226094022102425" /><vType id="vType_car_9.699444670683002" accel="1.0" decel="5.0" sigma="0.0" length="4.5" maxSpeed="2.694290186300834" /><vType id="vType_car_19.995095834449288" accel="1.0" decel="5.0" sigma="0.0" length="4.5" maxSpeed="5.554193287347024" /><vType id="vType_car_16.874832753628695" accel="1.0" decel="5.0" sigma="0.0" length="4.5" maxSpeed="4.687453542674637" /><vType id="vType_car_21.06295751826128" accel="1.0" decel="5.0" sigma="0.0" length="4.5" maxSpeed="5.850821532850355" /><vType id="vType_car_16.415493061719005" accel="1.0" decel="5.0" sigma="0.0" length="4.5" maxSpeed="4.559859183810834" /><vType id="vType_truck_9.057868033495556" accel="1.0" decel="5.0" sigma="0.0" length="8" maxSpeed="2.5160744537487654" /><vType id="vType_car_16.04606348389623" accel="1.0" decel="5.0" sigma="0.0" length="4.5" maxSpeed="4.457239856637842" /><vType id="vType_car_16.465797587462163" accel="1.0" decel="5.0" sigma="0.0" length="4.5" maxSpeed="4.573832663183934" /><vType id="vType_car_31.54936666368402" accel="1.0" decel="5.0" sigma="0.0" length="4.5" maxSpeed="8.76371296213445" /><vType id="vType_car_19.141957427100568" accel="1.0" decel="5.0" sigma="0.0" length="4.5" maxSpeed="5.317210396416824" /><vType id="vType_car_15.322868100407375" accel="1.0" decel="5.0" sigma="0.0" length="4.5" maxSpeed="4.256352250113159" /><vType id="vType_car_16.77321481810687" accel="1.0" decel="5.0" sigma="0.0" length="4.5" maxSpeed="4.659226338363019" /><vType id="vType_car_4.395300300189941" accel="1.0" decel="5.0" sigma="0.0" length="4.5" maxSpeed="1.2209167500527613" /><vType id="vType_truck_18.1859033467836" accel="1.0" decel="5.0" sigma="0.0" length="8" maxSpeed="5.051639818551" /><vType id="vType_car_9.671827828995106" accel="1.0" decel="5.0" sigma="0.0" length="4.5" maxSpeed="2.686618841387529" /><vType id="vType_car_29.127768154139098" accel="1.0" decel="5.0" sigma="0.0" length="4.5" maxSpeed="8.091046709483082" /><vType id="vType_car_29.289228136363096" accel="1.0" decel="5.0" sigma="0.0" length="4.5" maxSpeed="8.135896704545305" /><vType id="vType_car_20.858658788097593" accel="1.0" decel="5.0" sigma="0.0" length="4.5" maxSpeed="5.794071885582665" /><vType id="vType_car_20.58885061287646" accel="1.0" decel="5.0" sigma="0.0" length="4.5" maxSpeed="5.719125170243461" /><vType id="vType_car_15.070969361351983" accel="1.0" decel="5.0" sigma="0.0" length="4.5" maxSpeed="4.186380378153329" /><vType id="vType_car_27.955328428858184" accel="1.0" decel="5.0" sigma="0.0" length="4.5" maxSpeed="7.765369008016162" /><vType id="vType_car_30.475111349982523" accel="1.0" decel="5.0" sigma="0.0" length="4.5" maxSpeed="8.465308708328479" /><vType id="vType_car_5.789236087535173" accel="1.0" decel="5.0" sigma="0.0" length="4.5" maxSpeed="1.6081211354264369" /><vType id="vType_car_11.997986823785128" accel="1.0" decel="5.0" sigma="0.0" length="4.5" maxSpeed="3.332774117718091" /><vType id="vType_car_31.835135630546734" accel="1.0" decel="5.0" sigma="0.0" length="4.5" maxSpeed="8.843093230707426" /><vType id="vType_car_24.302178668182506" accel="1.0" decel="5.0" sigma="0.0" length="4.5" maxSpeed="6.7506051856062514" /><vType id="vType_car_19.71026682629882" accel="1.0" decel="5.0" sigma="0.0" length="4.5" maxSpeed="5.475074118416339" /><vType id="vType_car_21.609701749285254" accel="1.0" decel="5.0" sigma="0.0" length="4.5" maxSpeed="6.0026949303570145" /><vType id="vType_car_5.248365792444963" accel="1.0" decel="5.0" sigma="0.0" length="4.5" maxSpeed="1.4578793867902673" /><vType id="vType_car_16.074806554912232" accel="1.0" decel="5.0" sigma="0.0" length="4.5" maxSpeed="4.465224043031175" /><vType id="vType_car_37.03527223550963" accel="1.0" decel="5.0" sigma="0.0" length="4.5" maxSpeed="10.287575620974897" /><vType id="vType_car_18.762313733928874" accel="1.0" decel="5.0" sigma="0.0" length="4.5" maxSpeed="5.211753814980242" /><vType id="vType_car_20.061881282352036" accel="1.0" decel="5.0" sigma="0.0" length="4.5" maxSpeed="5.572744800653344" /><vType id="vType_car_16.2247675047924" accel="1.0" decel="5.0" sigma="0.0" length="4.5" maxSpeed="4.506879862442333" /><vType id="vType_car_28.053957641013426" accel="1.0" decel="5.0" sigma="0.0" length="4.5" maxSpeed="7.792766011392618" /><vType id="vType_car_3.860262754113264" accel="1.0" decel="5.0" sigma="0.0" length="4.5" maxSpeed="1.0722952094759066" /><vType id="vType_car_29.452548949599063" accel="1.0" decel="5.0" sigma="0.0" length="4.5" maxSpeed="8.181263597110851" /><vType id="vType_car_24.731340676385855" accel="1.0" decel="5.0" sigma="0.0" length="4.5" maxSpeed="6.869816854551626" /><vType id="vType_car_2.9772667753966955" accel="1.0" decel="5.0" sigma="0.0" length="4.5" maxSpeed="0.8270185487213043" /><vType id="vType_car_20.93666433667805" accel="1.0" decel="5.0" sigma="0.0" length="4.5" maxSpeed="5.81574009352168" /><vType id="vType_car_10.345896727960694" accel="1.0" decel="5.0" sigma="0.0" length="4.5" maxSpeed="2.873860202211304" /><vType id="vType_car_24.79608612507481" accel="1.0" decel="5.0" sigma="0.0" length="4.5" maxSpeed="6.8878017014096695" /><vType id="vType_car_3.163845790940045" accel="1.0" decel="5.0" sigma="0.0" length="4.5" maxSpeed="0.8788460530389013" /><vType id="vType_car_26.845668613845245" accel="1.0" decel="5.0" sigma="0.0" length="4.5" maxSpeed="7.457130170512568" /><vType id="vType_car_1.935828777302334" accel="1.0" decel="5.0" sigma="0.0" length="4.5" maxSpeed="0.537730215917315" /><vType id="vType_car_20.26330579577605" accel="1.0" decel="5.0" sigma="0.0" length="4.5" maxSpeed="5.628696054382235" /><vType id="vType_truck_18.34932523657289" accel="1.0" decel="5.0" sigma="0.0" length="8" maxSpeed="5.097034787936914" /><vType id="vType_car_26.49317009697688" accel="1.0" decel="5.0" sigma="0.0" length="4.5" maxSpeed="7.359213915826911" /><vType id="vType_car_18.783642243016953" accel="1.0" decel="5.0" sigma="0.0" length="4.5" maxSpeed="5.217678400838042" /><vType id="vType_car_22.188618125959522" accel="1.0" decel="5.0" sigma="0.0" length="4.5" maxSpeed="6.163505034988756" /><vType id="vType_car_28.96584137498215" accel="1.0" decel="5.0" sigma="0.0" length="4.5" maxSpeed="8.046067048606153" /><vType id="vType_car_21.279167666526774" accel="1.0" decel="5.0" sigma="0.0" length="4.5" maxSpeed="5.910879907368549" /><vType id="vType_car_5.833853709890635" accel="1.0" decel="5.0" sigma="0.0" length="4.5" maxSpeed="1.6205149194140651" /><vType id="vType_car_44.81630739985853" accel="1.0" decel="5.0" sigma="0.0" length="4.5" maxSpeed="12.44897427773848" /><vType id="vType_car_25.94212853477935" accel="1.0" decel="5.0" sigma="0.0" length="4.5" maxSpeed="7.206146815216486" /><vType id="vType_car_4.309114822171798" accel="1.0" decel="5.0" sigma="0.0" length="4.5" maxSpeed="1.1969763394921662" /><vType id="vType_car_14.552979004674071" accel="1.0" decel="5.0" sigma="0.0" length="4.5" maxSpeed="4.04249416796502" /><vType id="vType_car_4.089036235426257" accel="1.0" decel="5.0" sigma="0.0" length="4.5" maxSpeed="1.1358433987295158" /><vType id="vType_car_30.979128801516282" accel="1.0" decel="5.0" sigma="0.0" length="4.5" maxSpeed="8.605313555976744" /><vType id="vType_car_6.89343687586663" accel="1.0" decel="5.0" sigma="0.0" length="4.5" maxSpeed="1.9148435766296195" /><vType id="vType_car_19.154059561859874" accel="1.0" decel="5.0" sigma="0.0" length="4.5" maxSpeed="5.320572100516632" /><vType id="vType_car_3.719061776136819" accel="1.0" decel="5.0" sigma="0.0" length="4.5" maxSpeed="1.0330727155935608" /><vType id="vType_car_29.157242271031986" accel="1.0" decel="5.0" sigma="0.0" length="4.5" maxSpeed="8.099233964175552" /><vType id="vType_car_2.7792817909700656" accel="1.0" decel="5.0" sigma="0.0" length="4.5" maxSpeed="0.7720227197139071" /><vType id="vType_car_23.24401063848239" accel="1.0" decel="5.0" sigma="0.0" length="4.5" maxSpeed="6.456669621800664" /><vType id="vType_car_69.23349904344609" accel="1.0" decel="5.0" sigma="0.0" length="4.5" maxSpeed="19.231527512068357" /><vType id="vType_car_6.463494252692337" accel="1.0" decel="5.0" sigma="0.0" length="4.5" maxSpeed="1.7954150701923157" /><vType id="vType_car_3.9431260480811554" accel="1.0" decel="5.0" sigma="0.0" length="4.5" maxSpeed="1.0953127911336542" /><vType id="vType_car_8.292629548718816" accel="1.0" decel="5.0" sigma="0.0" length="4.5" maxSpeed="2.303508207977449" /><vType id="vType_car_16.56434756755208" accel="1.0" decel="5.0" sigma="0.0" length="4.5" maxSpeed="4.601207657653355" /><vType id="vType_car_18.74333618661976" accel="1.0" decel="5.0" sigma="0.0" length="4.5" maxSpeed="5.206482274061044" /><vType id="vType_car_40.31738571491979" accel="1.0" decel="5.0" sigma="0.0" length="4.5" maxSpeed="11.19927380969994" /><vType id="vType_car_19.234936690530624" accel="1.0" decel="5.0" sigma="0.0" length="4.5" maxSpeed="5.3430379695918395" /><vType id="vType_car_7.158932625901526" accel="1.0" decel="5.0" sigma="0.0" length="4.5" maxSpeed="1.9885923960837573" /><vType id="vType_car_13.63427761403531" accel="1.0" decel="5.0" sigma="0.0" length="4.5" maxSpeed="3.7872993372320307" /><vType id="vType_car_5.777244406690775" accel="1.0" decel="5.0" sigma="0.0" length="4.5" maxSpeed="1.6047901129696596" /><vType id="vType_car_6.715216811580236" accel="1.0" decel="5.0" sigma="0.0" length="4.5" maxSpeed="1.8653380032167322" /><vType id="vType_car_7.242002359133851" accel="1.0" decel="5.0" sigma="0.0" length="4.5" maxSpeed="2.011667321981625" /><vType id="vType_car_3.777726317540352" accel="1.0" decel="5.0" sigma="0.0" length="4.5" maxSpeed="1.0493684215389867" /><vType id="vType_car_9.030541704919067" accel="1.0" decel="5.0" sigma="0.0" length="4.5" maxSpeed="2.508483806921963" /><vType id="vType_car_4.008606213246436" accel="1.0" decel="5.0" sigma="0.0" length="4.5" maxSpeed="1.1135017259017876" /><vType id="vType_car_22.06875829456943" accel="1.0" decel="5.0" sigma="0.0" length="4.5" maxSpeed="6.130210637380397" /><vType id="vType_car_8.596565159543884" accel="1.0" decel="5.0" sigma="0.0" length="4.5" maxSpeed="2.3879347665399675" /><vType id="vType_car_3.6747419179477694" accel="1.0" decel="5.0" sigma="0.0" length="4.5" maxSpeed="1.0207616438743803" /><vType id="vType_car_6.108869946342495" accel="1.0" decel="5.0" sigma="0.0" length="4.5" maxSpeed="1.6969083184284708" /><vType id="vType_car_6.644339282954851" accel="1.0" decel="5.0" sigma="0.0" length="4.5" maxSpeed="1.845649800820792" /><vType id="vType_car_37.20999266910449" accel="1.0" decel="5.0" sigma="0.0" length="4.5" maxSpeed="10.336109074751246" /><vType id="vType_car_8.804402049857055" accel="1.0" decel="5.0" sigma="0.0" length="4.5" maxSpeed="2.445667236071404" /><vType id="vType_car_44.15589040508237" accel="1.0" decel="5.0" sigma="0.0" length="4.5" maxSpeed="12.26552511252288" /><vType id="vType_car_26.860645966827455" accel="1.0" decel="5.0" sigma="0.0" length="4.5" maxSpeed="7.46129054634096" /><vType id="vType_car_46.34556101958253" accel="1.0" decel="5.0" sigma="0.0" length="4.5" maxSpeed="12.873766949884036" /><vType id="vType_car_48.901536227082495" accel="1.0" decel="5.0" sigma="0.0" length="4.5" maxSpeed="13.58376006307847" /><vType id="vType_car_11.97271271361054" accel="1.0" decel="5.0" sigma="0.0" length="4.5" maxSpeed="3.325753531558483" /><vType id="vType_car_28.634469463239355" accel="1.0" decel="5.0" sigma="0.0" length="4.5" maxSpeed="7.954019295344265" /><vType id="vType_car_30.35112641653931" accel="1.0" decel="5.0" sigma="0.0" length="4.5" maxSpeed="8.430868449038696" /><vType id="vType_car_56.04388997547528" accel="1.0" decel="5.0" sigma="0.0" length="4.5" maxSpeed="15.567747215409799" /><vType id="vType_car_3.695342796234142" accel="1.0" decel="5.0" sigma="0.0" length="4.5" maxSpeed="1.0264841100650395" /><vType id="vType_truck_40.21720474862905" accel="1.0" decel="5.0" sigma="0.0" length="8" maxSpeed="11.17144576350807" /><vType id="vType_car_31.09314131215763" accel="1.0" decel="5.0" sigma="0.0" length="4.5" maxSpeed="8.636983697821563" /><vType id="vType_car_12.19093694072499" accel="1.0" decel="5.0" sigma="0.0" length="4.5" maxSpeed="3.3863713724236084" /><vType id="vType_car_32.87542300002588" accel="1.0" decel="5.0" sigma="0.0" length="4.5" maxSpeed="9.132061944451634" /><vType id="vType_car_31.79737677381058" accel="1.0" decel="5.0" sigma="0.0" length="4.5" maxSpeed="8.832604659391828" /><vType id="vType_car_7.768555777723897" accel="1.0" decel="5.0" sigma="0.0" length="4.5" maxSpeed="2.15793216047886" /><vType id="vType_car_53.18183564539093" accel="1.0" decel="5.0" sigma="0.0" length="4.5" maxSpeed="14.772732123719702" /><vType id="vType_car_34.632164755311145" accel="1.0" decel="5.0" sigma="0.0" length="4.5" maxSpeed="9.620045765364207" /><vType id="vType_car_37.840029165155926" accel="1.0" decel="5.0" sigma="0.0" length="4.5" maxSpeed="10.511119212543312" /><vType id="vType_car_34.57662225410199" accel="1.0" decel="5.0" sigma="0.0" length="4.5" maxSpeed="9.60461729280611" /><vType id="vType_car_13.38215236670708" accel="1.0" decel="5.0" sigma="0.0" length="4.5" maxSpeed="3.717264546307522" /><vType id="vType_car_18.285061752232124" accel="1.0" decel="5.0" sigma="0.0" length="4.5" maxSpeed="5.079183820064479" /><vType id="vType_car_6.726748979489435" accel="1.0" decel="5.0" sigma="0.0" length="4.5" maxSpeed="1.8685413831915096" /><vType id="vType_car_64.00958724177731" accel="1.0" decel="5.0" sigma="0.0" length="4.5" maxSpeed="17.780440900493698" /><vType id="vType_car_44.437172382544844" accel="1.0" decel="5.0" sigma="0.0" length="4.5" maxSpeed="12.343658995151346" /><vType id="vType_car_32.52978547022022" accel="1.0" decel="5.0" sigma="0.0" length="4.5" maxSpeed="9.036051519505616" /><vType id="vType_car_66.6803333961362" accel="1.0" decel="5.0" sigma="0.0" length="4.5" maxSpeed="18.522314832260058" /><vType id="vType_car_5.5813033316591065" accel="1.0" decel="5.0" sigma="0.0" length="4.5" maxSpeed="1.550362036571974" /><vType id="vType_car_21.102166166482192" accel="1.0" decel="5.0" sigma="0.0" length="4.5" maxSpeed="5.861712824022831" /><vType id="vType_car_5.245189503515001" accel="1.0" decel="5.0" sigma="0.0" length="4.5" maxSpeed="1.4569970843097224" /><vType id="vType_car_25.186015434787926" accel="1.0" decel="5.0" sigma="0.0" length="4.5" maxSpeed="6.9961153985522015" /><vType id="vType_car_17.29581550587441" accel="1.0" decel="5.0" sigma="0.0" length="4.5" maxSpeed="4.804393196076225" /><vType id="vType_car_22.8447734815185" accel="1.0" decel="5.0" sigma="0.0" length="4.5" maxSpeed="6.345770411532917" /><vType id="vType_car_5.956141669806373" accel="1.0" decel="5.0" sigma="0.0" length="4.5" maxSpeed="1.6544837971684367" /><vType id="vType_car_21.58711743659399" accel="1.0" decel="5.0" sigma="0.0" length="4.5" maxSpeed="5.996421510164997" /><vType id="vType_car_26.71440061078084" accel="1.0" decel="5.0" sigma="0.0" length="4.5" maxSpeed="7.42066683632801" /><vType id="vType_car_14.891641380361401" accel="1.0" decel="5.0" sigma="0.0" length="4.5" maxSpeed="4.136567050100389" /><vType id="vType_car_15.903730605391836" accel="1.0" decel="5.0" sigma="0.0" length="4.5" maxSpeed="4.417702945942176" /><vType id="vType_car_20.61097160073923" accel="1.0" decel="5.0" sigma="0.0" length="4.5" maxSpeed="5.72526988909423" /><vType id="vType_car_10.035816550556014" accel="1.0" decel="5.0" sigma="0.0" length="4.5" maxSpeed="2.7877268195988925" /><vType id="vType_car_20.316330774719944" accel="1.0" decel="5.0" sigma="0.0" length="4.5" maxSpeed="5.643425215199985" /><vType id="vType_car_26.758806018875532" accel="1.0" decel="5.0" sigma="0.0" length="4.5" maxSpeed="7.43300167190987" /><vType id="vType_car_22.369441112897967" accel="1.0" decel="5.0" sigma="0.0" length="4.5" maxSpeed="6.213733642471658" /><vType id="vType_car_3.9868277387940236" accel="1.0" decel="5.0" sigma="0.0" length="4.5" maxSpeed="1.1074521496650065" /><vType id="vType_car_19.17100031888059" accel="1.0" decel="5.0" sigma="0.0" length="4.5" maxSpeed="5.325277866355719" /><vType id="vType_car_3.67931518923691" accel="1.0" decel="5.0" sigma="0.0" length="4.5" maxSpeed="1.0220319970102527" /><vType id="vType_car_18.100795984246624" accel="1.0" decel="5.0" sigma="0.0" length="4.5" maxSpeed="5.027998884512951" /><vType id="vType_car_22.08390607786854" accel="1.0" decel="5.0" sigma="0.0" length="4.5" maxSpeed="6.134418354963484" /><vType id="vType_car_17.243822894533157" accel="1.0" decel="5.0" sigma="0.0" length="4.5" maxSpeed="4.789950804036988" /><vType id="vType_car_5.469609253535127" accel="1.0" decel="5.0" sigma="0.0" length="4.5" maxSpeed="1.5193359037597576" /><vType id="vType_car_26.504691864775104" accel="1.0" decel="5.0" sigma="0.0" length="4.5" maxSpeed="7.362414406881973" /><vType id="vType_car_29.78867116328701" accel="1.0" decel="5.0" sigma="0.0" length="4.5" maxSpeed="8.274630878690836" /><vType id="vType_car_16.585669136123837" accel="1.0" decel="5.0" sigma="0.0" length="4.5" maxSpeed="4.607130315589955" /><vType id="vType_car_31.83976517946425" accel="1.0" decel="5.0" sigma="0.0" length="4.5" maxSpeed="8.844379216517847" /><vType id="vType_car_10.82006066368578" accel="1.0" decel="5.0" sigma="0.0" length="4.5" maxSpeed="3.0055724065793834" /><vType id="vType_car_21.507193498926224" accel="1.0" decel="5.0" sigma="0.0" length="4.5" maxSpeed="5.974220416368396" /><vType id="vType_car_17.119798039174906" accel="1.0" decel="5.0" sigma="0.0" length="4.5" maxSpeed="4.755499455326363" /><vType id="vType_car_23.89979050597056" accel="1.0" decel="5.0" sigma="0.0" length="4.5" maxSpeed="6.638830696102933" /><vType id="vType_car_14.16638863417655" accel="1.0" decel="5.0" sigma="0.0" length="4.5" maxSpeed="3.935107953937931" /><vType id="vType_car_9.646792290720553" accel="1.0" decel="5.0" sigma="0.0" length="4.5" maxSpeed="2.6796645252001534" /><vType id="vType_car_8.796094843999814" accel="1.0" decel="5.0" sigma="0.0" length="4.5" maxSpeed="2.443359678888837" /><vType id="vType_car_4.9087661369999065" accel="1.0" decel="5.0" sigma="0.0" length="4.5" maxSpeed="1.3635461491666407" /><route id="route_north_to_east" edges="north_to_center center_to_east" /><route id="route_north_to_south" edges="north_to_center center_to_south" /><route id="route_north_to_west" edges="north_to_center center_to_west" /><route id="route_east_to_west" edges="east_to_center center_to_west" /><route id="route_east_to_south" edges="east_to_center center_to_south" /><route id="route_east_to_north" edges="east_to_center center_to_north" /><route id="route_south_to_west" edges="south_to_center center_to_west" /><route id="route_south_to_north" edges="south_to_center center_to_north" /><route id="route_south_to_east" edges="south_to_center center_to_east" /><route id="route_west_to_south" edges="west_to_center center_to_south" /><route id="route_west_to_north" edges="west_to_center center_to_north" /><route id="route_west_to_east" edges="west_to_center center_to_east" /><vehicle id="veh1" type="vType_car_14.501329017934673" route="route_north_to_east" depart="0.03" /><vehicle id="veh3" type="vType_car_21.95587935862218" route="route_north_to_south" depart="0.03" /><vehicle id="veh4" type="vType_car_61.663084407942165" route="route_west_to_east" depart="1.13" /><vehicle id="veh6" type="vType_car_64.85514131677971" route="route_west_to_east" depart="2.80" /><vehicle id="veh9" type="vType_car_22.571531283409186" route="route_north_to_south" depart="9.71" /><vehicle id="veh10" type="vType_car_19.148454084444108" route="route_north_to_east" depart="10.11" /><vehicle id="veh12" type="vType_car_17.118483398907138" route="route_north_to_east" depart="11.04" /><vehicle id="veh13" type="vType_car_8.992751557851465" route="route_east_to_west" depart="11.87" /><vehicle id="veh14" type="vType_car_29.416163738646837" route="route_north_to_south" depart="12.27" /><vehicle id="veh15" type="vType_car_26.03276469906822" route="route_north_to_south" depart="12.87" /><vehicle id="veh18" type="vType_car_17.366610175689157" route="route_north_to_east" depart="13.94" /><vehicle id="veh19" type="vType_car_17.390026825295898" route="route_north_to_east" depart="15.58" /><vehicle id="veh22" type="vType_car_31.195665088303137" route="route_north_to_south" depart="16.74" /><vehicle id="veh23" type="vType_car_15.953914207250751" route="route_north_to_east" depart="18.21" /><vehicle id="veh26" type="vType_car_29.951389151012144" route="route_north_to_south" depart="18.54" /><vehicle id="veh28" type="vType_car_23.453899311247312" route="route_north_to_west" depart="21.11" /><vehicle id="veh29" type="vType_car_14.970204490715588" route="route_north_to_east" depart="21.58" /><vehicle id="veh30" type="vType_car_19.019537537819502" route="route_north_to_west" depart="22.95" /><vehicle id="veh32" type="vType_car_27.57123988151738" route="route_north_to_east" depart="23.55" /><vehicle id="veh35" type="vType_car_9.699444670683002" route="route_west_to_east" depart="25.68" /><vehicle id="veh36" type="vType_car_19.995095834449288" route="route_north_to_west" depart="26.75" /><vehicle id="veh37" type="vType_car_16.874832753628695" route="route_north_to_east" depart="28.55" /><vehicle id="veh40" type="vType_car_21.06295751826128" route="route_north_to_west" depart="29.52" /><vehicle id="veh42" type="vType_car_16.415493061719005" route="route_north_to_east" depart="31.12" /><vehicle id="veh43" type="vType_truck_9.057868033495556" route="route_north_to_west" depart="31.39" /><vehicle id="veh44" type="vType_car_16.04606348389623" route="route_north_to_east" depart="33.45" /><vehicle id="veh46" type="vType_car_16.465797587462163" route="route_north_to_east" depart="34.45" /><vehicle id="veh47" type="vType_car_31.54936666368402" route="route_north_to_south" depart="35.69" /><vehicle id="veh48" type="vType_car_19.141957427100568" route="route_north_to_west" depart="35.79" /><vehicle id="veh49" type="vType_car_15.322868100407375" route="route_north_to_east" depart="37.06" /><vehicle id="veh50" type="vType_car_16.77321481810687" route="route_north_to_east" depart="39.09" /><vehicle id="veh52" type="vType_truck_18.1859033467836" route="route_north_to_west" depart="41.96" /><vehicle id="veh54" type="vType_car_9.671827828995106" route="route_west_to_north" depart="43.29" /><vehicle id="veh57" type="vType_car_29.127768154139098" route="route_north_to_west" depart="43.93" /><vehicle id="veh58" type="vType_car_29.289228136363096" route="route_north_to_south" depart="44.99" /><vehicle id="veh62" type="vType_car_20.858658788097593" route="route_north_to_east" depart="45.46" /><vehicle id="veh64" type="vType_car_15.070969361351983" route="route_north_to_east" depart="46.43" /><vehicle id="veh65" type="vType_car_27.955328428858184" route="route_north_to_south" depart="46.49" /><vehicle id="veh66" type="vType_car_30.475111349982523" route="route_north_to_south" depart="47.93" /><vehicle id="veh68" type="vType_car_11.997986823785128" route="route_east_to_north" depart="49.76" /><vehicle id="veh69" type="vType_car_31.835135630546734" route="route_north_to_south" depart="50.03" /><vehicle id="veh71" type="vType_car_24.302178668182506" route="route_north_to_west" depart="51.90" /><vehicle id="veh72" type="vType_car_19.71026682629882" route="route_north_to_east" depart="51.96" /><vehicle id="veh74" type="vType_car_21.609701749285254" route="route_north_to_east" depart="52.30" /><vehicle id="veh77" type="vType_car_16.074806554912232" route="route_north_to_east" depart="53.60" /><vehicle id="veh78" type="vType_car_37.03527223550963" route="route_north_to_south" depart="54.03" /><vehicle id="veh79" type="vType_car_18.762313733928874" route="route_north_to_east" depart="56.77" /><vehicle id="veh82" type="vType_car_20.061881282352036" route="route_north_to_west" depart="57.70" /><vehicle id="veh83" type="vType_car_16.2247675047924" route="route_north_to_east" depart="59.14" /><vehicle id="veh85" type="vType_car_28.053957641013426" route="route_north_to_south" depart="59.47" /><vehicle id="veh88" type="vType_car_29.452548949599063" route="route_north_to_south" depart="61.87" /><vehicle id="veh90" type="vType_car_24.731340676385855" route="route_north_to_west" depart="64.47" /><vehicle id="veh94" type="vType_car_20.93666433667805" route="route_north_to_west" depart="66.17" /><vehicle id="veh95" type="vType_car_10.345896727960694" route="route_north_to_east" depart="66.24" /><vehicle id="veh97" type="vType_car_24.79608612507481" route="route_north_to_west" depart="67.44" /><vehicle id="veh99" type="vType_car_26.845668613845245" route="route_north_to_south" depart="70.41" /><vehicle id="veh103" type="vType_car_20.26330579577605" route="route_south_to_north" depart="71.51" /><vehicle id="veh108" type="vType_car_26.49317009697688" route="route_south_to_north" depart="72.84" /><vehicle id="veh109" type="vType_car_18.783642243016953" route="route_north_to_west" depart="72.88" /><vehicle id="veh111" type="vType_car_22.188618125959522" route="route_south_to_east" depart="75.58" /><vehicle id="veh116" type="vType_car_28.96584137498215" route="route_north_to_south" depart="76.31" /><vehicle id="veh118" type="vType_car_21.279167666526774" route="route_north_to_west" depart="76.91" /><vehicle id="veh119" type="vType_car_5.833853709890635" route="route_east_to_north" depart="77.45" /><vehicle id="veh120" type="vType_car_44.81630739985853" route="route_south_to_north" depart="79.98" /><vehicle id="veh121" type="vType_car_25.94212853477935" route="route_north_to_south" depart="80.01" /><vehicle id="veh124" type="vType_car_14.552979004674071" route="route_north_to_east" depart="82.08" /><vehicle id="veh127" type="vType_car_30.979128801516282" route="route_south_to_west" depart="82.82" /><vehicle id="veh130" type="vType_car_19.154059561859874" route="route_south_to_north" depart="85.15" /><vehicle id="veh137" type="vType_car_29.157242271031986" route="route_north_to_south" depart="87.29" /><vehicle id="veh140" type="vType_car_23.24401063848239" route="route_north_to_west" depart="89.85" /><vehicle id="veh142" type="vType_car_69.23349904344609" route="route_south_to_north" depart="90.49" /><vehicle id="veh143" type="vType_car_6.463494252692337" route="route_east_to_north" depart="90.69" /><vehicle id="veh148" type="vType_car_16.56434756755208" route="route_north_to_east" depart="92.86" /><vehicle id="veh149" type="vType_car_18.74333618661976" route="route_north_to_east" depart="92.99" /><vehicle id="veh151" type="vType_car_40.31738571491979" route="route_south_to_west" depart="96.19" /><vehicle id="veh152" type="vType_car_19.234936690530624" route="route_north_to_east" depart="97.06" /><vehicle id="veh153" type="vType_car_7.158932625901526" route="route_east_to_north" depart="98.26" /><vehicle id="veh154" type="vType_car_13.63427761403531" route="route_north_to_east" depart="98.79" /><vehicle id="veh168" type="vType_car_9.030541704919067" route="route_north_to_east" depart="103.53" /><vehicle id="veh173" type="vType_car_8.596565159543884" route="route_east_to_north" depart="106.00" /><v