<?xml version='1.0' encoding='utf-8'?>
<routes><vType id="vType_car_19.387652691935102" accel="1.0" decel="5.0" sigma="0.0" length="4.5" maxSpeed="5.385459081093084" /><vType id="vType_car_12.622266599807928" accel="1.0" decel="5.0" sigma="0.0" length="4.5" maxSpeed="3.5061851666133133" /><vType id="vType_car_12.933711112756535" accel="1.0" decel="5.0" sigma="0.0" length="4.5" maxSpeed="3.5926975313212597" /><vType id="vType_car_51.60579180985631" accel="1.0" decel="5.0" sigma="0.0" length="4.5" maxSpeed="14.334942169404531" /><vType id="vType_car_32.854573265801605" accel="1.0" decel="5.0" sigma="0.0" length="4.5" maxSpeed="9.126270351611558" /><vType id="vType_car_51.35603683705329" accel="1.0" decel="5.0" sigma="0.0" length="4.5" maxSpeed="14.265565788070358" /><vType id="vType_car_29.431149254654265" accel="1.0" decel="5.0" sigma="0.0" length="4.5" maxSpeed="8.175319237403963" /><vType id="vType_car_6.248407277146874" accel="1.0" decel="5.0" sigma="0.0" length="4.5" maxSpeed="1.7356686880963537" /><vType id="vType_car_8.786126966469672" accel="1.0" decel="5.0" sigma="0.0" length="4.5" maxSpeed="2.440590824019353" /><vType id="vType_car_35.38845521520718" accel="1.0" decel="5.0" sigma="0.0" length="4.5" maxSpeed="9.830126448668661" /><vType id="vType_car_21.955850579393168" accel="1.0" decel="5.0" sigma="0.0" length="4.5" maxSpeed="6.0988473831647685" /><vType id="vType_car_24.641620098491416" accel="1.0" decel="5.0" sigma="0.0" length="4.5" maxSpeed="6.844894471803171" /><vType id="vType_car_9.696239329405136" accel="1.0" decel="5.0" sigma="0.0" length="4.5" maxSpeed="2.693399813723649" /><vType id="vType_car_21.900572628834908" accel="1.0" decel="5.0" sigma="0.0" length="4.5" maxSpeed="6.083492396898586" /><vType id="vType_car_16.147030369487325" accel="1.0" decel="5.0" sigma="0.0" length="4.5" maxSpeed="4.4852862137464795" /><vType id="vType_car_32.61793867666442" accel="1.0" decel="5.0" sigma="0.0" length="4.5" maxSpeed="9.060538521295673" /><vType id="vType_car_17.992367476080712" accel="1.0" decel="5.0" sigma="0.0" length="4.5" maxSpeed="4.997879854466865" /><vType id="vType_car_27.085735423338438" accel="1.0" decel="5.0" sigma="0.0" length="4.5" maxSpeed="7.523815395371788" /><vType id="vType_car_4.8602929685551555" accel="1.0" decel="5.0" sigma="0.0" length="4.5" maxSpeed="1.3500813801542098" /><vType id="vType_car_15.81171789470964" accel="1.0" decel="5.0" sigma="0.0" length="4.5" maxSpeed="4.392143859641567" /><vType id="vType_car_23.127045016817103" accel="1.0" decel="5.0" sigma="0.0" length="4.5" maxSpeed="6.424179171338084" /><vType id="vType_car_17.176623684437732" accel="1.0" decel="5.0" sigma="0.0" length="4.5" maxSpeed="4.771284356788259" /><vType id="vType_car_19.491460210671065" accel="1.0" decel="5.0" sigma="0.0" length="4.5" maxSpeed="5.414294502964185" /><vType id="vType_car_26.036290495468986" accel="1.0" decel="5.0" sigma="0.0" length="4.5" maxSpeed="7.232302915408051" /><vType id="vType_car_18.92032028934648" accel="1.0" decel="5.0" sigma="0.0" length="4.5" maxSpeed="5.255644524818467" /><vType id="vType_car_16.274565661804317" accel="1.0" decel="5.0" sigma="0.0" length="4.5" maxSpeed="4.520712683834533" /><vType id="vType_car_4.160577238509048" accel="1.0" decel="5.0" sigma="0.0" length="4.5" maxSpeed="1.1557158995858468" /><vType id="vType_car_30.99139275004223" accel="1.0" decel="5.0" sigma="0.0" length="4.5" maxSpeed="8.608720208345064" /><vType id="vType_car_16.784379439952886" accel="1.0" decel="5.0" sigma="0.0" length="4.5" maxSpeed="4.662327622209135" /><vType id="vType_car_30.50958311328796" accel="1.0" decel="5.0" sigma="0.0" length="4.5" maxSpeed="8.474884198135545" /><vType id="vType_car_30.421912071110008" accel="1.0" decel="5.0" sigma="0.0" length="4.5" maxSpeed="8.45053113086389" /><vType id="vType_car_16.617148925980555" accel="1.0" decel="5.0" sigma="0.0" length="4.5" maxSpeed="4.615874701661265" /><vType id="vType_car_11.926088090678789" accel="1.0" decel="5.0" sigma="0.0" length="4.5" maxSpeed="3.3128022474107746" /><vType id="vType_car_17.722342262443885" accel="1.0" decel="5.0" sigma="0.0" length="4.5" maxSpeed="4.922872850678857" /><vType id="vType_car_23.823440901614475" accel="1.0" decel="5.0" sigma="0.0" length="4.5" maxSpeed="6.617622472670687" /><vType id="vType_car_5.886615187178749" accel="1.0" decel="5.0" sigma="0.0" length="4.5" maxSpeed="1.6351708853274303" /><vType id="vType_car_22.59140918042725" accel="1.0" decel="5.0" sigma="0.0" length="4.5" maxSpeed="6.275391439007569" /><vType id="vType_car_17.297763149971697" accel="1.0" decel="5.0" sigma="0.0" length="4.5" maxSpeed="4.804934208325471" /><vType id="vType_car_26.420025918096034" accel="1.0" decel="5.0" sigma="0.0" length="4.5" maxSpeed="7.338896088360009" /><vType id="vType_car_18.015840145369456" accel="1.0" decel="5.0" sigma="0.0" length="4.5" maxSpeed="5.004400040380404" /><vType id="vType_car_8.011669275360827" accel="1.0" decel="5.0" sigma="0.0" length="4.5" maxSpeed="2.2254636876002296" /><vType id="vType_car_18.01249968283703" accel="1.0" decel="5.0" sigma="0.0" length="4.5" maxSpeed="5.003472134121398" /><vType id="vType_car_27.416151006419295" accel="1.0" decel="5.0" sigma="0.0" length="4.5" maxSpeed="7.615597501783137" /><vType id="vType_car_4.545203791857943" accel="1.0" decel="5.0" sigma="0.0" length="4.5" maxSpeed="1.2625566088494284" /><vType id="vType_car_21.440220416423827" accel="1.0" decel="5.0" sigma="0.0" length="4.5" maxSpeed="5.955616782339952" /><vType id="vType_car_3.4111053447997906" accel="1.0" decel="5.0" sigma="0.0" length="4.5" maxSpeed="0.9475292624443863" /><vType id="vType_car_13.898427706229468" accel="1.0" decel="5.0" sigma="0.0" length="4.5" maxSpeed="3.8606743628415185" /><vType id="vType_car_24.03286875842659" accel="1.0" decel="5.0" sigma="0.0" length="4.5" maxSpeed="6.675796877340719" /><vType id="vType_car_14.544680203310959" accel="1.0" decel="5.0" sigma="0.0" length="4.5" maxSpeed="4.0401889453641555" /><vType id="vType_car_29.54477862743428" accel="1.0" decel="5.0" sigma="0.0" length="4.5" maxSpeed="8.206882952065078" /><vType id="vType_car_3.1072854445358424" accel="1.0" decel="5.0" sigma="0.0" length="4.5" maxSpeed="0.8631348457044007" /><vType id="vType_car_3.7285057016088947" accel="1.0" decel="5.0" sigma="0.0" length="4.5" maxSpeed="1.035696028224693" /><vType id="vType_car_21.925408437560023" accel="1.0" decel="5.0" sigma="0.0" length="4.5" maxSpeed="6.090391232655562" /><vType id="vType_car_4.234469716826089" accel="1.0" decel="5.0" sigma="0.0" length="4.5" maxSpeed="1.176241588007247" /><vType id="vType_car_13.05294515851075" accel="1.0" decel="5.0" sigma="0.0" length="4.5" maxSpeed="3.6258180995863194" /><vType id="vType_car_4.301187822806886" accel="1.0" decel="5.0" sigma="0.0" length="4.5" maxSpeed="1.194774395224135" /><vType id="vType_car_4.621024026362398" accel="1.0" decel="5.0" sigma="0.0" length="4.5" maxSpeed="1.283617785100666" /><vType id="vType_car_3.7482647099847886" accel="1.0" decel="5.0" sigma="0.0" length="4.5" maxSpeed="1.0411846416624413" /><vType id="vType_car_40.291202239260414" accel="1.0" decel="5.0" sigma="0.0" length="4.5" maxSpeed="11.192000622016781" /><route id="route_north_to_east" edges="north_to_center center_to_east" /><route id="route_north_to_south" edges="north_to_center center_to_south" /><route id="route_north_to_west" edges="north_to_center center_to_west" /><route id="route_east_to_west" edges="east_to_center center_to_west" /><route id="route_east_to_south" edges="east_to_center center_to_south" /><route id="route_east_to_north" edges="east_to_center center_to_north" /><route id="route_south_to_west" edges="south_to_center center_to_west" /><route id="route_south_to_north" edges="south_to_center center_to_north" /><route id="route_south_to_east" edges="south_to_center center_to_east" /><route id="route_west_to_south" edges="west_to_center center_to_south" /><route id="route_west_to_north" edges="west_to_center center_to_north" /><route id="route_west_to_east" edges="west_to_center center_to_east" /><vehicle id="veh988" type="vType_car_19.387652691935102" route="route_north_to_south" depart="0.03" /><vehicle id="veh993" type="vType_car_12.622266599807928" route="route_north_to_east" depart="0.03" /><vehicle id="veh1025" type="vType_car_12.933711112756535" route="route_west_to_south" depart="0.03" /><vehicle id="veh1044" type="vType_car_29.431149254654265" route="route_east_to_west" depart="0.03" /><vehicle id="veh1048" type="vType_car_35.38845521520718" route="route_east_to_west" depart="2.97" /><vehicle id="veh1049" type="vType_car_21.955850579393168" route="route_west_to_south" depart="3.60" /><vehicle id="veh1056" type="vType_car_9.696239329405136" route="route_east_to_north" depart="14.61" /><vehicle id="veh1058" type="vType_car_21.900572628834908" route="route_north_to_west" depart="15.51" /><vehicle id="veh1059" type="vType_car_16.147030369487325" route="route_north_to_east" depart="15.91" /><vehicle id="veh1060" type="vType_car_32.61793867666442" route="route_north_to_south" depart="18.28" /><vehicle id="veh1061" type="vType_car_17.992367476080712" route="route_north_to_east" depart="18.61" /><vehicle id="veh1062" type="vType_car_27.085735423338438" route="route_north_to_south" depart="19.21" /><vehicle id="veh1066" type="vType_car_15.81171789470964" route="route_north_to_east" depart="20.98" /><vehicle id="veh1067" type="vType_car_23.127045016817103" route="route_north_to_west" depart="21.98" /><vehicle id="veh1068" type="vType_car_17.176623684437732" route="route_north_to_east" depart="23.48" /><vehicle id="veh1069" type="vType_car_19.491460210671065" route="route_north_to_east" depart="24.48" /><vehicle id="veh1070" type="vType_car_26.036290495468986" route="route_north_to_west" depart="24.61" /><vehicle id="veh1072" type="vType_car_18.92032028934648" route="route_north_to_south" depart="25.95" /><vehicle id="veh1074" type="vType_car_16.274565661804317" route="route_north_to_east" depart="26.28" /><vehicle id="veh1076" type="vType_car_30.99139275004223" route="route_north_to_south" depart="27.72" /><vehicle id="veh1077" type="vType_car_16.784379439952886" route="route_north_to_east" depart="29.62" /><vehicle id="veh1078" type="vType_car_30.50958311328796" route="route_north_to_south" depart="29.65" /><vehicle id="veh1080" type="vType_car_30.421912071110008" route="route_north_to_south" depart="31.79" /><vehicle id="veh1081" type="vType_car_16.617148925980555" route="route_north_to_east" depart="31.95" /><vehicle id="veh1090" type="vType_car_17.722342262443885" route="route_north_to_east" depart="34.52" /><vehicle id="veh1091" type="vType_car_23.823440901614475" route="route_north_to_west" depart="36.22" /><vehicle id="veh1094" type="vType_car_22.59140918042725" route="route_north_to_west" depart="38.96" /><vehicle id="veh1095" type="vType_car_17.297763149971697" route="route_north_to_east" depart="39.26" /><vehicle id="veh1099" type="vType_car_18.015840145369456" route="route_north_to_east" depart="41.29" /><vehicle id="veh1102" type="vType_car_18.01249968283703" route="route_north_to_east" depart="42.83" /><vehicle id="veh1103" type="vType_car_27.416151006419295" route="route_north_to_west" depart="43.86" /><vehicle id="veh1107" type="vType_car_21.440220416423827" route="route_north_to_west" depart="45.06" /><vehicle id="veh1109" type="vType_car_13.898427706229468" route="route_north_to_east" depart="47.53" /><vehicle id="veh1111" type="vType_car_24.03286875842659" route="route_north_to_west" depart="48.43" /><vehicle id="veh1112" type="vType_car_14.544680203310959" route="route_north_to_east" depart="50.30" /><vehicle id="veh1113" type="vType_car_29.54477862743428" route="route_north_to_south" depart="50.86" /><vehicle id="veh1119" type="vType_car_21.925408437560023" route="route_north_to_west" depart="53.20" /></routes>