<?xml version='1.0' encoding='utf-8'?>
<configuration><input><net-file value="simple_nw_se.net.xml" /><route-files value="route.rou.xml" /></input><time><begin value="0" /><end value="1000" /></time></configuration>