<?xml version='1.0' encoding='utf-8'?>
<routes><vType id="vType_car_4.121078607617349" accel="1.0" decel="5.0" sigma="0.0" length="4.5" maxSpeed="1.1447440576714858" /><vType id="vType_car_13.277081879900052" accel="1.0" decel="5.0" sigma="0.0" length="4.5" maxSpeed="3.688078299972237" /><vType id="vType_car_19.611931337450624" accel="1.0" decel="5.0" sigma="0.0" length="4.5" maxSpeed="5.447758704847396" /><vType id="vType_car_23.289356619210803" accel="1.0" decel="5.0" sigma="0.0" length="4.5" maxSpeed="6.4692657275585566" /><vType id="vType_car_13.791732495514346" accel="1.0" decel="5.0" sigma="0.0" length="4.5" maxSpeed="3.8310368043095404" /><vType id="vType_car_13.40149746860504" accel="1.0" decel="5.0" sigma="0.0" length="4.5" maxSpeed="3.722638185723622" /><vType id="vType_car_56.05113238882919" accel="1.0" decel="5.0" sigma="0.0" length="4.5" maxSpeed="15.569758996896997" /><vType id="vType_bus_3.154358645569083" accel="1.0" decel="5.0" sigma="0.0" length="13" maxSpeed="0.8762107348803008" /><vType id="vType_car_11.034304511360974" accel="1.0" decel="5.0" sigma="0.0" length="4.5" maxSpeed="3.065084586489159" /><vType id="vType_car_5.863864716692556" accel="1.0" decel="5.0" sigma="0.0" length="4.5" maxSpeed="1.6288513101923767" /><vType id="vType_car_13.869107728102623" accel="1.0" decel="5.0" sigma="0.0" length="4.5" maxSpeed="3.8525299244729507" /><vType id="vType_car_15.75571375841121" accel="1.0" decel="5.0" sigma="0.0" length="4.5" maxSpeed="4.376587155114224" /><vType id="vType_car_10.693067467990288" accel="1.0" decel="5.0" sigma="0.0" length="4.5" maxSpeed="2.9702965188861907" /><vType id="vType_car_2.7406805450926135" accel="1.0" decel="5.0" sigma="0.0" length="4.5" maxSpeed="0.7613001514146148" /><vType id="vType_car_18.612572120182037" accel="1.0" decel="5.0" sigma="0.0" length="4.5" maxSpeed="5.170158922272788" /><vType id="vType_car_16.330797133351293" accel="1.0" decel="5.0" sigma="0.0" length="4.5" maxSpeed="4.536332537042026" /><vType id="vType_car_2.715755620904047" accel="1.0" decel="5.0" sigma="0.0" length="4.5" maxSpeed="0.7543765613622353" /><vType id="vType_car_5.352251022344027" accel="1.0" decel="5.0" sigma="0.0" length="4.5" maxSpeed="1.486736395095563" /><vType id="vType_car_38.23448445818779" accel="1.0" decel="5.0" sigma="0.0" length="4.5" maxSpeed="10.620690127274385" /><vType id="vType_car_44.417118267453" accel="1.0" decel="5.0" sigma="0.0" length="4.5" maxSpeed="12.338088407625833" /><vType id="vType_car_4.983309767574077" accel="1.0" decel="5.0" sigma="0.0" length="4.5" maxSpeed="1.3842527132150215" /><vType id="vType_truck_14.59582834426581" accel="1.0" decel="5.0" sigma="0.0" length="8" maxSpeed="4.054396762296058" /><vType id="vType_car_19.252144524910655" accel="1.0" decel="5.0" sigma="0.0" length="4.5" maxSpeed="5.347817923586293" /><vType id="vType_car_64.42837542438193" accel="1.0" decel="5.0" sigma="0.0" length="4.5" maxSpeed="17.896770951217203" /><vType id="vType_car_11.080940807742136" accel="1.0" decel="5.0" sigma="0.0" length="4.5" maxSpeed="3.0780391132617044" /><vType id="vType_bus_55.460162703817154" accel="1.0" decel="5.0" sigma="0.0" length="13" maxSpeed="15.40560075106032" /><vType id="vType_truck_12.175206167187055" accel="1.0" decel="5.0" sigma="0.0" length="8" maxSpeed="3.382001713107515" /><vType id="vType_car_20.688667600066818" accel="1.0" decel="5.0" sigma="0.0" length="4.5" maxSpeed="5.746852111129671" /><vType id="vType_car_3.839856936385263" accel="1.0" decel="5.0" sigma="0.0" length="4.5" maxSpeed="1.066626926773684" /><vType id="vType_car_52.590932358144464" accel="1.0" decel="5.0" sigma="0.0" length="4.5" maxSpeed="14.608592321706794" /><vType id="vType_car_21.591210195049424" accel="1.0" decel="5.0" sigma="0.0" length="4.5" maxSpeed="5.997558387513728" /><vType id="vType_car_3.3222065117160517" accel="1.0" decel="5.0" sigma="0.0" length="4.5" maxSpeed="0.9228351421433477" /><vType id="vType_car_4.200888915151243" accel="1.0" decel="5.0" sigma="0.0" length="4.5" maxSpeed="1.1669135875420118" /><vType id="vType_car_50.24193119868995" accel="1.0" decel="5.0" sigma="0.0" length="4.5" maxSpeed="13.956091999636095" /><vType id="vType_car_48.683114466617" accel="1.0" decel="5.0" sigma="0.0" length="4.5" maxSpeed="13.523087351838054" /><vType id="vType_car_40.55288116948618" accel="1.0" decel="5.0" sigma="0.0" length="4.5" maxSpeed="11.264689213746161" /><vType id="vType_car_43.43884432885108" accel="1.0" decel="5.0" sigma="0.0" length="4.5" maxSpeed="12.066345646903079" /><vType id="vType_car_41.864597332672" accel="1.0" decel="5.0" sigma="0.0" length="4.5" maxSpeed="11.629054814631111" /><vType id="vType_car_51.54044130851792" accel="1.0" decel="5.0" sigma="0.0" length="4.5" maxSpeed="14.316789252366089" /><vType id="vType_car_41.46831471023728" accel="1.0" decel="5.0" sigma="0.0" length="4.5" maxSpeed="11.518976308399244" /><vType id="vType_car_47.44843468214016" accel="1.0" decel="5.0" sigma="0.0" length="4.5" maxSpeed="13.180120745038932" /><vType id="vType_car_4.7882380891726335" accel="1.0" decel="5.0" sigma="0.0" length="4.5" maxSpeed="1.330066135881287" /><vType id="vType_car_37.869336276254614" accel="1.0" decel="5.0" sigma="0.0" length="4.5" maxSpeed="10.519260076737392" /><vType id="vType_car_5.9945081697800005" accel="1.0" decel="5.0" sigma="0.0" length="4.5" maxSpeed="1.6651411582722222" /><vType id="vType_car_4.331266718321955" accel="1.0" decel="5.0" sigma="0.0" length="4.5" maxSpeed="1.2031296439783208" /><vType id="vType_car_22.892416250952678" accel="1.0" decel="5.0" sigma="0.0" length="4.5" maxSpeed="6.359004514153521" /><vType id="vType_car_2.705087291260242" accel="1.0" decel="5.0" sigma="0.0" length="4.5" maxSpeed="0.7514131364611782" /><vType id="vType_car_0.3523732129404788" accel="1.0" decel="5.0" sigma="0.0" length="4.5" maxSpeed="0.09788144803902188" /><vType id="vType_car_5.24897885502884" accel="1.0" decel="5.0" sigma="0.0" length="4.5" maxSpeed="1.4580496819524555" /><vType id="vType_car_13.370153780888842" accel="1.0" decel="5.0" sigma="0.0" length="4.5" maxSpeed="3.713931605802456" /><vType id="vType_car_4.130928002724889" accel="1.0" decel="5.0" sigma="0.0" length="4.5" maxSpeed="1.1474800007569135" /><vType id="vType_car_36.34378775504935" accel="1.0" decel="5.0" sigma="0.0" length="4.5" maxSpeed="10.095496598624818" /><vType id="vType_car_10.887099531187253" accel="1.0" decel="5.0" sigma="0.0" length="4.5" maxSpeed="3.0241943142186813" /><vType id="vType_car_3.8743022780989462" accel="1.0" decel="5.0" sigma="0.0" length="4.5" maxSpeed="1.0761950772497073" /><vType id="vType_car_7.300410643318845" accel="1.0" decel="5.0" sigma="0.0" length="4.5" maxSpeed="2.0278918453663457" /><vType id="vType_car_6.662176411717856" accel="1.0" decel="5.0" sigma="0.0" length="4.5" maxSpeed="1.8506045588105156" /><vType id="vType_car_40.239528191665485" accel="1.0" decel="5.0" sigma="0.0" length="4.5" maxSpeed="11.177646719907079" /><vType id="vType_car_5.458662238505057" accel="1.0" decel="5.0" sigma="0.0" length="4.5" maxSpeed="1.5162950662514048" /><vType id="vType_car_5.002489715610617" accel="1.0" decel="5.0" sigma="0.0" length="4.5" maxSpeed="1.3895804765585047" /><vType id="vType_car_11.526248277851153" accel="1.0" decel="5.0" sigma="0.0" length="4.5" maxSpeed="3.201735632736431" /><vType id="vType_car_27.99597639185781" accel="1.0" decel="5.0" sigma="0.0" length="4.5" maxSpeed="7.776660108849391" /><vType id="vType_car_2.807695104736989" accel="1.0" decel="5.0" sigma="0.0" length="4.5" maxSpeed="0.7799153068713859" /><vType id="vType_car_34.10647697502312" accel="1.0" decel="5.0" sigma="0.0" length="4.5" maxSpeed="9.474021381950866" /><vType id="vType_car_5.369688789049396" accel="1.0" decel="5.0" sigma="0.0" length="4.5" maxSpeed="1.4915802191803877" /><vType id="vType_car_16.60583732717098" accel="1.0" decel="5.0" sigma="0.0" length="4.5" maxSpeed="4.612732590880828" /><vType id="vType_car_44.27396223183456" accel="1.0" decel="5.0" sigma="0.0" length="4.5" maxSpeed="12.298322842176265" /><vType id="vType_car_31.726675271733352" accel="1.0" decel="5.0" sigma="0.0" length="4.5" maxSpeed="8.812965353259264" /><vType id="vType_car_34.89054921991615" accel="1.0" decel="5.0" sigma="0.0" length="4.5" maxSpeed="9.691819227754486" /><vType id="vType_car_3.4985414271936968" accel="1.0" decel="5.0" sigma="0.0" length="4.5" maxSpeed="0.9718170631093602" /><vType id="vType_car_3.08326561322919" accel="1.0" decel="5.0" sigma="0.0" length="4.5" maxSpeed="0.8564626703414416" /><vType id="vType_car_38.16061019024799" accel="1.0" decel="5.0" sigma="0.0" length="4.5" maxSpeed="10.600169497291109" /><vType id="vType_car_5.184835385262814" accel="1.0" decel="5.0" sigma="0.0" length="4.5" maxSpeed="1.4402320514618927" /><route id="route_north_to_east" edges="north_to_center center_to_east" /><route id="route_north_to_south" edges="north_to_center center_to_south" /><route id="route_north_to_west" edges="north_to_center center_to_west" /><route id="route_east_to_west" edges="east_to_center center_to_west" /><route id="route_east_to_south" edges="east_to_center center_to_south" /><route id="route_east_to_north" edges="east_to_center center_to_north" /><route id="route_south_to_west" edges="south_to_center center_to_west" /><route id="route_south_to_north" edges="south_to_center center_to_north" /><route id="route_south_to_east" edges="south_to_center center_to_east" /><route id="route_west_to_south" edges="west_to_center center_to_south" /><route id="route_west_to_north" edges="west_to_center center_to_north" /><route id="route_west_to_east" edges="west_to_center center_to_east" /><vehicle id="veh374" type="vType_car_13.277081879900052" route="route_south_to_north" depart="0.04" /><vehicle id="veh409" type="vType_car_13.791732495514346" route="route_south_to_east" depart="0.04" /><vehicle id="veh413" type="vType_car_56.05113238882919" route="route_east_to_west" depart="1.04" /><vehicle id="veh418" type="vType_car_13.869107728102623" route="route_south_to_east" depart="6.90" /><vehicle id="veh419" type="vType_car_15.75571375841121" route="route_south_to_north" depart="7.47" /><vehicle id="veh422" type="vType_car_18.612572120182037" route="route_south_to_west" depart="11.30" /><vehicle id="veh423" type="vType_car_16.330797133351293" route="route_north_to_west" depart="11.41" /><vehicle id="veh429" type="vType_car_38.23448445818779" route="route_east_to_west" depart="17.27" /><vehicle id="veh430" type="vType_car_44.417118267453" route="route_east_to_west" depart="21.24" /><vehicle id="veh431" type="vType_truck_14.59582834426581" route="route_east_to_south" depart="23.14" /><vehicle id="veh433" type="vType_car_19.252144524910655" route="route_east_to_south" depart="23.24" /><vehicle id="veh434" type="vType_car_64.42837542438193" route="route_east_to_west" depart="23.31" /><vehicle id="veh438" type="vType_bus_55.460162703817154" route="route_east_to_west" depart="26.50" /><vehicle id="veh439" type="vType_truck_12.175206167187055" route="route_east_to_north" depart="27.39" /><vehicle id="veh440" type="vType_car_20.688667600066818" route="route_east_to_south" depart="27.57" /><vehicle id="veh442" type="vType_car_52.590932358144464" route="route_east_to_west" depart="29.36" /><vehicle id="veh446" type="vType_car_21.591210195049424" route="route_east_to_south" depart="29.79" /><vehicle id="veh449" type="vType_car_50.24193119868995" route="route_east_to_west" depart="34.22" /><vehicle id="veh450" type="vType_car_48.683114466617" route="route_east_to_west" depart="36.97" /><vehicle id="veh451" type="vType_car_40.55288116948618" route="route_east_to_west" depart="37.65" /><vehicle id="veh452" type="vType_car_43.43884432885108" route="route_east_to_west" depart="37.72" /><vehicle id="veh454" type="vType_car_41.864597332672" route="route_east_to_west" depart="39.26" /><vehicle id="veh456" type="vType_car_51.54044130851792" route="route_east_to_west" depart="40.73" /><vehicle id="veh457" type="vType_car_41.46831471023728" route="route_east_to_west" depart="41.30" /><vehicle id="veh459" type="vType_car_47.44843468214016" route="route_east_to_west" depart="41.69" /><vehicle id="veh461" type="vType_car_37.869336276254614" route="route_west_to_south" depart="42.59" /><vehicle id="veh464" type="vType_car_22.892416250952678" route="route_south_to_north" depart="43.84" /><vehicle id="veh473" type="vType_car_36.34378775504935" route="route_south_to_west" depart="49.77" /><vehicle id="veh487" type="vType_car_40.239528191665485" route="route_south_to_west" depart="52.64" /><vehicle id="veh500" type="vType_car_34.10647697502312" route="route_south_to_north" depart="55.42" /><vehicle id="veh491" type="vType_car_16.60583732717098" route="route_north_to_west" depart="56.60" /></routes>