<?xml version='1.0' encoding='utf-8'?>
<routes><vType id="vType_car_13.550938234629351" accel="1.0" decel="5.0" sigma="0.0" length="4.5" maxSpeed="3.764149509619264" /><vType id="vType_car_6.063088632347208" accel="1.0" decel="5.0" sigma="0.0" length="4.5" maxSpeed="1.6841912867631132" /><vType id="vType_car_52.43199333517429" accel="1.0" decel="5.0" sigma="0.0" length="4.5" maxSpeed="14.56444259310397" /><vType id="vType_car_9.225390372997376" accel="1.0" decel="5.0" sigma="0.0" length="4.5" maxSpeed="2.5626084369437154" /><vType id="vType_car_38.91315334748349" accel="1.0" decel="5.0" sigma="0.0" length="4.5" maxSpeed="10.809209263189857" /><vType id="vType_car_9.490103476309239" accel="1.0" decel="5.0" sigma="0.0" length="4.5" maxSpeed="2.636139854530344" /><vType id="vType_car_8.023370153275339" accel="1.0" decel="5.0" sigma="0.0" length="4.5" maxSpeed="2.228713931465372" /><vType id="vType_truck_16.58653400172428" accel="1.0" decel="5.0" sigma="0.0" length="8" maxSpeed="4.607370556034523" /><vType id="vType_car_6.863234455724999" accel="1.0" decel="5.0" sigma="0.0" length="4.5" maxSpeed="1.9064540154791665" /><vType id="vType_car_31.974866233881524" accel="1.0" decel="5.0" sigma="0.0" length="4.5" maxSpeed="8.881907287189312" /><vType id="vType_car_10.874053524867861" accel="1.0" decel="5.0" sigma="0.0" length="4.5" maxSpeed="3.020570423574406" /><vType id="vType_car_34.233145103119334" accel="1.0" decel="5.0" sigma="0.0" length="4.5" maxSpeed="9.509206973088704" /><vType id="vType_truck_25.487155888718338" accel="1.0" decel="5.0" sigma="0.0" length="8" maxSpeed="7.079765524643983" /><vType id="vType_car_33.27704332611694" accel="1.0" decel="5.0" sigma="0.0" length="4.5" maxSpeed="9.243623146143594" /><vType id="vType_car_16.250417335213992" accel="1.0" decel="5.0" sigma="0.0" length="4.5" maxSpeed="4.51400481533722" /><vType id="vType_car_4.243649753579908" accel="1.0" decel="5.0" sigma="0.0" length="4.5" maxSpeed="1.1787915982166413" /><vType id="vType_car_15.013536099572105" accel="1.0" decel="5.0" sigma="0.0" length="4.5" maxSpeed="4.1704266943255845" /><vType id="vType_car_23.917333408831347" accel="1.0" decel="5.0" sigma="0.0" length="4.5" maxSpeed="6.643703724675374" /><vType id="vType_car_16.453522585989155" accel="1.0" decel="5.0" sigma="0.0" length="4.5" maxSpeed="4.570422940552543" /><vType id="vType_car_6.097696974783546" accel="1.0" decel="5.0" sigma="0.0" length="4.5" maxSpeed="1.6938047152176516" /><vType id="vType_car_34.4042430505602" accel="1.0" decel="5.0" sigma="0.0" length="4.5" maxSpeed="9.556734180711166" /><vType id="vType_car_19.967598445362523" accel="1.0" decel="5.0" sigma="0.0" length="4.5" maxSpeed="5.546555123711812" /><vType id="vType_car_17.76853466302071" accel="1.0" decel="5.0" sigma="0.0" length="4.5" maxSpeed="4.935704073061308" /><vType id="vType_car_3.77763908640489" accel="1.0" decel="5.0" sigma="0.0" length="4.5" maxSpeed="1.049344190668025" /><vType id="vType_car_52.88694720966846" accel="1.0" decel="5.0" sigma="0.0" length="4.5" maxSpeed="14.69081866935235" /><vType id="vType_car_18.830846710310855" accel="1.0" decel="5.0" sigma="0.0" length="4.5" maxSpeed="5.230790752864126" /><vType id="vType_car_23.63817517434232" accel="1.0" decel="5.0" sigma="0.0" length="4.5" maxSpeed="6.566159770650644" /><vType id="vType_car_6.390243931486247" accel="1.0" decel="5.0" sigma="0.0" length="4.5" maxSpeed="1.7750677587461796" /><vType id="vType_car_17.043448208063786" accel="1.0" decel="5.0" sigma="0.0" length="4.5" maxSpeed="4.734291168906608" /><vType id="vType_car_4.3173018130341605" accel="1.0" decel="5.0" sigma="0.0" length="4.5" maxSpeed="1.1992505036206" /><vType id="vType_car_20.472562120050874" accel="1.0" decel="5.0" sigma="0.0" length="4.5" maxSpeed="5.686822811125243" /><vType id="vType_car_27.98572430922559" accel="1.0" decel="5.0" sigma="0.0" length="4.5" maxSpeed="7.773812308118218" /><vType id="vType_car_3.7776390864048897" accel="1.0" decel="5.0" sigma="0.0" length="4.5" maxSpeed="1.049344190668025" /><vType id="vType_car_20.13608015833869" accel="1.0" decel="5.0" sigma="0.0" length="4.5" maxSpeed="5.5933555995385245" /><vType id="vType_car_30.907786779949586" accel="1.0" decel="5.0" sigma="0.0" length="4.5" maxSpeed="8.585496327763774" /><vType id="vType_car_20.217751272209423" accel="1.0" decel="5.0" sigma="0.0" length="4.5" maxSpeed="5.616042020058173" /><vType id="vType_car_30.828525799737847" accel="1.0" decel="5.0" sigma="0.0" length="4.5" maxSpeed="8.563479388816068" /><vType id="vType_car_19.74610180483195" accel="1.0" decel="5.0" sigma="0.0" length="4.5" maxSpeed="5.4850282791199865" /><vType id="vType_car_27.234988682206655" accel="1.0" decel="5.0" sigma="0.0" length="4.5" maxSpeed="7.565274633946293" /><vType id="vType_car_19.790102107762674" accel="1.0" decel="5.0" sigma="0.0" length="4.5" maxSpeed="5.497250585489632" /><vType id="vType_car_18.741853838100695" accel="1.0" decel="5.0" sigma="0.0" length="4.5" maxSpeed="5.206070510583526" /><vType id="vType_car_3.964269180638032" accel="1.0" decel="5.0" sigma="0.0" length="4.5" maxSpeed="1.1011858835105643" /><vType id="vType_car_15.296750259383453" accel="1.0" decel="5.0" sigma="0.0" length="4.5" maxSpeed="4.249097294273181" /><vType id="vType_car_7.550382893202296" accel="1.0" decel="5.0" sigma="0.0" length="4.5" maxSpeed="2.0973285814450824" /><vType id="vType_car_5.886206876137728" accel="1.0" decel="5.0" sigma="0.0" length="4.5" maxSpeed="1.6350574655938133" /><vType id="vType_car_4.19796278173624" accel="1.0" decel="5.0" sigma="0.0" length="4.5" maxSpeed="1.166100772704511" /><vType id="vType_car_24.250524142453354" accel="1.0" decel="5.0" sigma="0.0" length="4.5" maxSpeed="6.736256706237043" /><vType id="vType_car_22.560728170821093" accel="1.0" decel="5.0" sigma="0.0" length="4.5" maxSpeed="6.2668689363391925" /><vType id="vType_car_21.49234592718072" accel="1.0" decel="5.0" sigma="0.0" length="4.5" maxSpeed="5.9700960908835325" /><vType id="vType_car_3.567770248271285" accel="1.0" decel="5.0" sigma="0.0" length="4.5" maxSpeed="0.9910472911864681" /><vType id="vType_car_24.0958575846845" accel="1.0" decel="5.0" sigma="0.0" length="4.5" maxSpeed="6.693293773523472" /><vType id="vType_car_3.9304446949507557" accel="1.0" decel="5.0" sigma="0.0" length="4.5" maxSpeed="1.0917901930418765" /><vType id="vType_car_30.329514769490387" accel="1.0" decel="5.0" sigma="0.0" length="4.5" maxSpeed="8.42486521374733" /><vType id="vType_car_34.692918791672355" accel="1.0" decel="5.0" sigma="0.0" length="4.5" maxSpeed="9.636921886575655" /><vType id="vType_car_67.35140331868102" accel="1.0" decel="5.0" sigma="0.0" length="4.5" maxSpeed="18.70872314407806" /><vType id="vType_car_4.7560891152419575" accel="1.0" decel="5.0" sigma="0.0" length="4.5" maxSpeed="1.3211358653449883" /><route id="route_north_to_east" edges="north_to_center center_to_east" /><route id="route_north_to_south" edges="north_to_center center_to_south" /><route id="route_north_to_west" edges="north_to_center center_to_west" /><route id="route_east_to_west" edges="east_to_center center_to_west" /><route id="route_east_to_south" edges="east_to_center center_to_south" /><route id="route_east_to_north" edges="east_to_center center_to_north" /><route id="route_south_to_west" edges="south_to_center center_to_west" /><route id="route_south_to_north" edges="south_to_center center_to_north" /><route id="route_south_to_east" edges="south_to_center center_to_east" /><route id="route_west_to_south" edges="west_to_center center_to_south" /><route id="route_west_to_north" edges="west_to_center center_to_north" /><route id="route_west_to_east" edges="west_to_center center_to_east" /><vehicle id="veh794" type="vType_car_13.550938234629351" route="route_west_to_north" depart="0.03" /><vehicle id="veh836" type="vType_car_52.43199333517429" route="route_north_to_south" depart="0.03" /><vehicle id="veh839" type="vType_car_9.225390372997376" route="route_east_to_north" depart="0.03" /><vehicle id="veh840" type="vType_car_38.91315334748349" route="route_north_to_south" depart="0.03" /><vehicle id="veh834" type="vType_car_9.490103476309239" route="route_west_to_south" depart="0.03" /><vehicle id="veh838" type="vType_car_8.023370153275339" route="route_east_to_north" depart="0.07" /><vehicle id="veh841" type="vType_car_31.974866233881524" route="route_north_to_south" depart="0.40" /><vehicle id="veh842" type="vType_car_10.874053524867861" route="route_east_to_north" depart="0.67" /><vehicle id="veh844" type="vType_car_34.233145103119334" route="route_north_to_south" depart="2.43" /><vehicle id="veh847" type="vType_car_33.27704332611694" route="route_north_to_south" depart="9.07" /><vehicle id="veh850" type="vType_car_16.250417335213992" route="route_south_to_north" depart="10.87" /><vehicle id="veh856" type="vType_car_23.917333408831347" route="route_south_to_north" depart="14.64" /><vehicle id="veh860" type="vType_car_34.4042430505602" route="route_north_to_south" depart="16.48" /><vehicle id="veh863" type="vType_car_19.967598445362523" route="route_south_to_north" depart="17.64" /><vehicle id="veh864" type="vType_car_17.76853466302071" route="route_south_to_north" depart="17.68" /><vehicle id="veh867" type="vType_car_18.830846710310855" route="route_south_to_north" depart="19.51" /><vehicle id="veh868" type="vType_car_23.63817517434232" route="route_south_to_north" depart="19.55" /><vehicle id="veh870" type="vType_car_6.390243931486247" route="route_east_to_north" depart="20.15" /><vehicle id="veh874" type="vType_car_20.472562120050874" route="route_south_to_north" depart="23.11" /><vehicle id="veh875" type="vType_car_27.98572430922559" route="route_south_to_north" depart="24.55" /><vehicle id="veh878" type="vType_car_30.907786779949586" route="route_south_to_north" depart="26.62" /><vehicle id="veh879" type="vType_car_20.217751272209423" route="route_south_to_north" depart="27.42" /><vehicle id="veh880" type="vType_car_30.828525799737847" route="route_south_to_north" depart="28.15" /><vehicle id="veh882" type="vType_car_27.234988682206655" route="route_south_to_north" depart="29.95" /><vehicle id="veh884" type="vType_car_19.790102107762674" route="route_west_to_north" depart="31.05" /><vehicle id="veh888" type="vType_car_7.550382893202296" route="route_east_to_north" depart="38.39" /><vehicle id="veh891" type="vType_car_24.250524142453354" route="route_west_to_north" depart="39.62" /><vehicle id="veh892" type="vType_car_22.560728170821093" route="route_west_to_north" depart="42.26" /><vehicle id="veh893" type="vType_car_21.49234592718072" route="route_west_to_north" depart="44.99" /><vehicle id="veh895" type="vType_car_24.0958575846845" route="route_west_to_north" depart="47.40" /><vehicle id="veh899" type="vType_car_30.329514769490387" route="route_west_to_north" depart="51.17" /><vehicle id="veh898" type="vType_car_34.692918791672355" route="route_west_to_south" depart="51.33" /><vehicle id="veh902" type="vType_car_67.35140331868102" route="route_west_to_east" depart="56.30" /></routes>