<?xml version="1.0" encoding="utf-8"?>
<routes>
	<vType id="vType_car_32.66345816178199" accel="1.0" decel="5.0" sigma="0.0" length="4.5" maxSpeed="9.07318282271722" />
	<vType id="vType_car_26.89684156575645" accel="1.0" decel="5.0" sigma="0.0" length="4.5" maxSpeed="7.471344879376791" />
	<vType id="vType_car_93.53817829953823" accel="1.0" decel="5.0" sigma="0.0" length="4.5" maxSpeed="25.982827305427286" />
	<vType id="vType_car_19.64103637576414" accel="1.0" decel="5.0" sigma="0.0" length="4.5" maxSpeed="5.455843437712262" />
	<vType id="vType_car_18.24779681628807" accel="1.0" decel="5.0" sigma="0.0" length="4.5" maxSpeed="5.068832448968908" />
	<vType id="vType_car_29.9846630204902" accel="1.0" decel="5.0" sigma="0.0" length="4.5" maxSpeed="8.329073061247277" />
	<vType id="vType_car_17.048765382160198" accel="1.0" decel="5.0" sigma="0.0" length="4.5" maxSpeed="4.735768161711166" />
	<vType id="vType_car_22.321754684570237" accel="1.0" decel="5.0" sigma="0.0" length="4.5" maxSpeed="6.200487412380621" />
	<vType id="vType_car_14.64818251728922" accel="1.0" decel="5.0" sigma="0.0" length="4.5" maxSpeed="4.068939588135894" />
	<vType id="vType_car_23.880084554325993" accel="1.0" decel="5.0" sigma="0.0" length="4.5" maxSpeed="6.633356820646109" />
	<vType id="vType_car_3.4553655169304087" accel="1.0" decel="5.0" sigma="0.0" length="4.5" maxSpeed="0.9598237547028913" />
	<vType id="vType_car_27.29196289433676" accel="1.0" decel="5.0" sigma="0.0" length="4.5" maxSpeed="7.581100803982433" />
	<vType id="vType_car_40.385066249959834" accel="1.0" decel="5.0" sigma="0.0" length="4.5" maxSpeed="11.218073958322176" />
	<vType id="vType_car_26.848095499082874" accel="1.0" decel="5.0" sigma="0.0" length="4.5" maxSpeed="7.457804305300798" />
	<vType id="vType_car_16.333033060281803" accel="1.0" decel="5.0" sigma="0.0" length="4.5" maxSpeed="4.5369536278560565" />
	<vType id="vType_car_5.204971363924822" accel="1.0" decel="5.0" sigma="0.0" length="4.5" maxSpeed="1.4458253788680062" />
	<vType id="vType_car_25.44536174452423" accel="1.0" decel="5.0" sigma="0.0" length="4.5" maxSpeed="7.068156040145619" />
	<vType id="vType_car_3.787825767867538" accel="1.0" decel="5.0" sigma="0.0" length="4.5" maxSpeed="1.0521738244076495" />
	<vType id="vType_car_18.67884499737089" accel="1.0" decel="5.0" sigma="0.0" length="4.5" maxSpeed="5.1885680548252475" />
	<vType id="vType_car_7.046549740429511" accel="1.0" decel="5.0" sigma="0.0" length="4.5" maxSpeed="1.9573749278970864" />
	<vType id="vType_car_3.7791978460625764" accel="1.0" decel="5.0" sigma="0.0" length="4.5" maxSpeed="1.0497771794618267" />
	<vType id="vType_car_32.77909211459981" accel="1.0" decel="5.0" sigma="0.0" length="4.5" maxSpeed="9.105303365166614" />
	<vType id="vType_car_14.871585393645136" accel="1.0" decel="5.0" sigma="0.0" length="4.5" maxSpeed="4.1309959426792044" />
	<vType id="vType_car_31.48740443312538" accel="1.0" decel="5.0" sigma="0.0" length="4.5" maxSpeed="8.746501231423716" />
	<vType id="vType_car_17.484923582651504" accel="1.0" decel="5.0" sigma="0.0" length="4.5" maxSpeed="4.856923217403195" />
	<vType id="vType_car_3.6926996850556315" accel="1.0" decel="5.0" sigma="0.0" length="4.5" maxSpeed="1.0257499125154532" />
	<vType id="vType_car_16.863598346921087" accel="1.0" decel="5.0" sigma="0.0" length="4.5" maxSpeed="4.684332874144746" />
	<vType id="vType_car_22.89554811393793" accel="1.0" decel="5.0" sigma="0.0" length="4.5" maxSpeed="6.35987447609387" />
	<vType id="vType_car_19.99843604948402" accel="1.0" decel="5.0" sigma="0.0" length="4.5" maxSpeed="5.555121124856672" />
	<vType id="vType_car_13.497163778802832" accel="1.0" decel="5.0" sigma="0.0" length="4.5" maxSpeed="3.7492121607785647" />
	<vType id="vType_car_28.715179667214606" accel="1.0" decel="5.0" sigma="0.0" length="4.5" maxSpeed="7.976438796448502" />
	<vType id="vType_car_26.979713627865593" accel="1.0" decel="5.0" sigma="0.0" length="4.5" maxSpeed="7.494364896629331" />
	<vType id="vType_car_1.8895989230312882" accel="1.0" decel="5.0" sigma="0.0" length="4.5" maxSpeed="0.5248885897309133" />
	<vType id="vType_car_37.1114773876276" accel="1.0" decel="5.0" sigma="0.0" length="4.5" maxSpeed="10.308743718785445" />
	<vType id="vType_car_16.667181074313167" accel="1.0" decel="5.0" sigma="0.0" length="4.5" maxSpeed="4.629772520642546" />
	<vType id="vType_car_3.4192742416756645" accel="1.0" decel="5.0" sigma="0.0" length="4.5" maxSpeed="0.9497984004654624" />
	<vType id="vType_car_28.590813028998276" accel="1.0" decel="5.0" sigma="0.0" length="4.5" maxSpeed="7.941892508055076" />
	<vType id="vType_car_29.176409760080787" accel="1.0" decel="5.0" sigma="0.0" length="4.5" maxSpeed="8.104558266689107" />
	<vType id="vType_car_28.559221462595662" accel="1.0" decel="5.0" sigma="0.0" length="4.5" maxSpeed="7.933117072943239" />
    <vType id="vType_car_17.726616445330432" accel="1.0" decel="5.0" sigma="0.0" length="4.5" maxSpeed="4.924060123702898" />
	<vType id="vType_car_28.07847520518135" accel="1.0" decel="5.0" sigma="0.0" length="4.5" maxSpeed="7.799576445883708" />
	<vType id="vType_car_9.177806426332635" accel="1.0" decel="5.0" sigma="0.0" length="4.5" maxSpeed="2.5493906739812875" />
	<vType id="vType_car_14.569744630502441" accel="1.0" decel="5.0" sigma="0.0" length="4.5" maxSpeed="4.047151286250678" />
	<vType id="vType_car_15.183163511892996" accel="1.0" decel="5.0" sigma="0.0" length="4.5" maxSpeed="4.217545419970277" />
	<vType id="vType_car_18.567142461844554" accel="1.0" decel="5.0" sigma="0.0" length="4.5" maxSpeed="5.157539572734598" />
	<vType id="vType_car_17.54564247774846" accel="1.0" decel="5.0" sigma="0.0" length="4.5" maxSpeed="4.873789577152349" />
	<vType id="vType_car_24.073869530322465" accel="1.0" decel="5.0" sigma="0.0" length="4.5" maxSpeed="6.687185980645129" />
	<vType id="vType_car_4.104616840441475" accel="1.0" decel="5.0" sigma="0.0" length="4.5" maxSpeed="1.1401713445670763" />
	<vType id="vType_car_9.959199437930014" accel="1.0" decel="5.0" sigma="0.0" length="4.5" maxSpeed="2.7664442883138927" />
	<vType id="vType_car_10.587415911377292" accel="1.0" decel="5.0" sigma="0.0" length="4.5" maxSpeed="2.94094886427147" />
	<vType id="vType_car_7.268589462485754" accel="1.0" decel="5.0" sigma="0.0" length="4.5" maxSpeed="2.019052628468265" />
	<vType id="vType_car_27.858896849477865" accel="1.0" decel="5.0" sigma="0.0" length="4.5" maxSpeed="7.738582458188295" />
	<vType id="vType_car_14.201024782375557" accel="1.0" decel="5.0" sigma="0.0" length="4.5" maxSpeed="3.944729106215432" />
	<vType id="vType_car_4.557755419088265" accel="1.0" decel="5.0" sigma="0.0" length="4.5" maxSpeed="1.2660431719689624" />
	<vType id="vType_car_9.952288931884244" accel="1.0" decel="5.0" sigma="0.0" length="4.5" maxSpeed="2.764524703301179" />
	<vType id="vType_car_36.70315990237012" accel="1.0" decel="5.0" sigma="0.0" length="4.5" maxSpeed="10.19532219510281" />
	<vType id="vType_car_3.7791978460625764" accel="1.0" decel="5.0" sigma="0.0" length="4.5" maxSpeed="1.0497771794618267" />
	<vType id="vType_car_4.300996180306012" accel="1.0" decel="5.0" sigma="0.0" length="4.5" maxSpeed="1.1947211611961146" />
	<vType id="vType_car_9.590877685280994" accel="1.0" decel="5.0" sigma="0.0" length="4.5" maxSpeed="2.6641326903558316" />
	<vType id="vType_car_35.77696656349829" accel="1.0" decel="5.0" sigma="0.0" length="4.5" maxSpeed="9.938046267638414" />
	<vType id="vType_car_5.657025299351064" accel="1.0" decel="5.0" sigma="0.0" length="4.5" maxSpeed="1.5713959164864066" />
	<vType id="vType_car_19.859352147350197" accel="1.0" decel="5.0" sigma="0.0" length="4.5" maxSpeed="5.516486707597277" />
	<vType id="vType_car_20.108914084377087" accel="1.0" decel="5.0" sigma="0.0" length="4.5" maxSpeed="5.585809467882524" />
	<vType id="vType_car_17.785445475122554" accel="1.0" decel="5.0" sigma="0.0" length="4.5" maxSpeed="4.940401520867376" />
	<vType id="vType_car_23.791609138780835" accel="1.0" decel="5.0" sigma="0.0" length="4.5" maxSpeed="6.608780316328009" />
	<vType id="vType_car_19.930245971040186" accel="1.0" decel="5.0" sigma="0.0" length="4.5" maxSpeed="5.536179436400052" />
	<vType id="vType_car_24.63381403051759" accel="1.0" decel="5.0" sigma="0.0" length="4.5" maxSpeed="6.842726119588219" />
	<vType id="vType_car_24.837417599566322" accel="1.0" decel="5.0" sigma="0.0" length="4.5" maxSpeed="6.899282666546201" />
	<vType id="vType_car_3.520886936266088" accel="1.0" decel="5.0" sigma="0.0" length="4.5" maxSpeed="0.9780241489628022" />
	<vType id="vType_car_18.435853230128522" accel="1.0" decel="5.0" sigma="0.0" length="4.5" maxSpeed="5.121070341702367" />
	<vType id="vType_car_24.88187826607055" accel="1.0" decel="5.0" sigma="0.0" length="4.5" maxSpeed="6.911632851686264" />
	<vType id="vType_car_19.50448528948374" accel="1.0" decel="5.0" sigma="0.0" length="4.5" maxSpeed="5.41791258041215" />
	<vType id="vType_car_16.085605824615126" accel="1.0" decel="5.0" sigma="0.0" length="4.5" maxSpeed="4.468223840170868" />
	<vType id="vType_car_22.572904134258366" accel="1.0" decel="5.0" sigma="0.0" length="4.5" maxSpeed="6.270251148405102" />
	<vType id="vType_car_18.49718460721826" accel="1.0" decel="5.0" sigma="0.0" length="4.5" maxSpeed="5.138106835338405" />
	<vType id="vType_car_31.379307133152132" accel="1.0" decel="5.0" sigma="0.0" length="4.5" maxSpeed="8.71647420365337" />
	<vType id="vType_car_29.548203718255706" accel="1.0" decel="5.0" sigma="0.0" length="4.5" maxSpeed="8.20783436618214" />
	<vType id="vType_car_31.070325692282527" accel="1.0" decel="5.0" sigma="0.0" length="4.5" maxSpeed="8.630646025634036" />
	<vType id="vType_car_22.95614840177921" accel="1.0" decel="5.0" sigma="0.0" length="4.5" maxSpeed="6.3767078893831135" />
	<vType id="vType_car_22.10439332405689" accel="1.0" decel="5.0" sigma="0.0" length="4.5" maxSpeed="6.140109256682469" />
	<vType id="vType_car_20.98966536579568" accel="1.0" decel="5.0" sigma="0.0" length="4.5" maxSpeed="5.830462601609911" />
	<vType id="vType_car_32.53851296968719" accel="1.0" decel="5.0" sigma="0.0" length="4.5" maxSpeed="9.038475824913109" />
	<vType id="vType_car_33.86726734915779" accel="1.0" decel="5.0" sigma="0.0" length="4.5" maxSpeed="9.407574263654942" />
	<vType id="vType_car_18.124529204612735" accel="1.0" decel="5.0" sigma="0.0" length="4.5" maxSpeed="5.034591445725759" />
	<vType id="vType_car_28.86210429959319" accel="1.0" decel="5.0" sigma="0.0" length="4.5" maxSpeed="8.017251194331442" />
	<vType id="vType_car_9.839977457645984" accel="1.0" decel="5.0" sigma="0.0" length="4.5" maxSpeed="2.733327071568329" />
	<route id="route_north_to_east" edges="north_to_center center_to_east" />
	<route id="route_north_to_south" edges="north_to_center center_to_south" />
	<route id="route_north_to_west" edges="north_to_center center_to_west" />
	<route id="route_east_to_west" edges="east_to_center center_to_west" />
	<route id="route_east_to_south" edges="east_to_center center_to_south" />
	<route id="route_east_to_north" edges="east_to_center center_to_north" />
	<route id="route_south_to_west" edges="south_to_center center_to_west" />
	<route id="route_south_to_north" edges="south_to_center center_to_north" />
	<route id="route_south_to_east" edges="south_to_center center_to_east" />
	<route id="route_west_to_south" edges="west_to_center center_to_south" />
	<route id="route_west_to_north" edges="west_to_center center_to_north" />
	<route id="route_west_to_east" edges="west_to_center center_to_east" />
	<vehicle id="veh426" type="vType_car_32.66345816178199" route="route_north_to_south" depart="0.03" />
	<vehicle id="veh424" type="vType_car_26.89684156575645" route="route_north_to_west" depart="0.03" />
	<vehicle id="veh427" type="vType_car_19.64103637576414" route="route_north_to_west" depart="0.03" />
	<vehicle id="veh403" type="vType_car_18.24779681628807" route="route_south_to_north" depart="0.07" />
	<vehicle id="veh428" type="vType_car_29.9846630204902" route="route_south_to_north" depart="0.97" />
	<vehicle id="veh431" type="vType_car_17.048765382160198" route="route_west_to_east" depart="1.97" />
	<vehicle id="veh433" type="vType_car_22.321754684570237" route="route_north_to_south" depart="3.07" />
	<vehicle id="veh434" type="vType_car_14.64818251728922" route="route_north_to_east" depart="5.37" />
	<vehicle id="veh435" type="vType_car_23.880084554325993" route="route_north_to_west" depart="6.07" />
	<vehicle id="veh438" type="vType_car_27.29196289433676" route="route_north_to_south" depart="8.34" />
	<vehicle id="veh440" type="vType_car_26.848095499082874" route="route_north_to_south" depart="10.40" />
	<vehicle id="veh442" type="vType_car_16.333033060281803" route="route_north_to_east" depart="10.84" />
	<vehicle id="veh445" type="vType_car_25.44536174452423" route="route_north_to_south" depart="11.60" />
	<vehicle id="veh449" type="vType_car_18.67884499737089" route="route_north_to_east" depart="14.80" />
	<vehicle id="veh450" type="vType_car_7.046549740429511" route="route_east_to_north" depart="14.84" />
	<vehicle id="veh453" type="vType_car_32.77909211459981" route="route_north_to_south" depart="15.64" />
	<vehicle id="veh455" type="vType_car_14.871585393645136" route="route_west_to_north" depart="16.04" />
	<vehicle id="veh456" type="vType_car_31.48740443312538" route="route_north_to_south" depart="17.17" />
	<vehicle id="veh457" type="vType_car_17.484923582651504" route="route_north_to_east" depart="17.17" />
	<vehicle id="veh460" type="vType_car_16.863598346921087" route="route_north_to_east" depart="18.64" />
	<vehicle id="veh461" type="vType_car_22.89554811393793" route="route_north_to_south" depart="18.80" />
	<vehicle id="veh465" type="vType_car_19.99843604948402" route="route_north_to_east" depart="22.20" />
	<vehicle id="veh466" type="vType_car_13.497163778802832" route="route_north_to_east" depart="22.67" />
	<vehicle id="veh471" type="vType_car_26.979713627865593" route="route_south_to_north" depart="28.14" />
	<vehicle id="veh475" type="vType_car_37.1114773876276" route="route_north_to_south" depart="32.41" />
	<vehicle id="veh476" type="vType_car_16.667181074313167" route="route_north_to_west" depart="35.21" />
	<vehicle id="veh479" type="vType_car_28.590813028998276" route="route_west_to_east" depart="42.64" />
	<vehicle id="veh482" type="vType_car_29.176409760080787" route="route_east_to_west" depart="47.81" />
	<vehicle id="veh483" type="vType_car_28.559221462595662" route="route_east_to_west" depart="49.08" />
    <vehicle id="veh486" type="vType_car_17.726616445330432" route="route_north_to_west" depart="61.10" />
	<vehicle id="veh488" type="vType_car_28.07847520518135" route="route_west_to_north" depart="61.73" />
	<vehicle id="veh489" type="vType_car_9.177806426332635" route="route_east_to_north" depart="71.97" />
	<vehicle id="veh491" type="vType_car_14.569744630502441" route="route_west_to_north" depart="72.44" />
	<vehicle id="veh493" type="vType_car_15.183163511892996" route="route_west_to_north" depart="74.30" />
	<vehicle id="veh494" type="vType_car_18.567142461844554" route="route_north_to_west" depart="75.30" />
	<vehicle id="veh496" type="vType_car_17.54564247774846" route="route_north_to_east" depart="76.74" />
	<vehicle id="veh500" type="vType_car_24.073869530322465" route="route_east_to_west" depart="92.31" />
	<vehicle id="veh503" type="vType_car_9.959199437930014" route="route_north_to_east" depart="95.27" />
	<vehicle id="veh504" type="vType_car_10.587415911377292" route="route_north_to_south" depart="95.77" />
	<vehicle id="veh506" type="vType_car_7.268589462485754" route="route_east_to_north" depart="95.94" />
	<vehicle id="veh507" type="vType_car_27.858896849477865" route="route_west_to_north" depart="96.44" />
	<vehicle id="veh509" type="vType_car_14.201024782375557" route="route_north_to_south" depart="99.91" />
	<vehicle id="veh512" type="vType_car_9.952288931884244" route="route_east_to_north" depart="105.24" />
	<vehicle id="veh515" type="vType_car_36.70315990237012" route="route_west_to_south" depart="105.44" />
	<vehicle id="veh518" type="vType_car_9.590877685280994" route="route_east_to_north" depart="108.51" />
	<vehicle id="veh519" type="vType_car_35.77696656349829" route="route_east_to_west" depart="109.14" />
	<vehicle id="veh523" type="vType_car_19.859352147350197" route="route_north_to_west" depart="128.85" />
	<vehicle id="veh525" type="vType_car_20.108914084377087" route="route_north_to_west" depart="130.11" />
	<vehicle id="veh526" type="vType_car_17.785445475122554" route="route_north_to_east" depart="131.95" />
	<vehicle id="veh529" type="vType_car_23.791609138780835" route="route_north_to_south" depart="132.85" />
	<vehicle id="veh531" type="vType_car_19.930245971040186" route="route_north_to_west" depart="134.52" />
	<vehicle id="veh532" type="vType_car_24.63381403051759" route="route_south_to_north" depart="135.32" />
	<vehicle id="veh533" type="vType_car_24.837417599566322" route="route_north_to_south" depart="136.28" />
	<vehicle id="veh536" type="vType_car_18.435853230128522" route="route_south_to_north" depart="140.38" />
	<vehicle id="veh538" type="vType_car_24.88187826607055" route="route_north_to_south" depart="140.95" />
	<vehicle id="veh539" type="vType_car_19.50448528948374" route="route_north_to_west" depart="143.65" />
	<vehicle id="veh542" type="vType_car_22.572904134258366" route="route_north_to_south" depart="144.68" />
	<vehicle id="veh543" type="vType_car_18.49718460721826" route="route_south_to_north" depart="145.82" />
	<vehicle id="veh544" type="vType_car_31.379307133152132" route="route_north_to_south" depart="149.19" />
	<vehicle id="veh546" type="vType_car_29.548203718255706" route="route_north_to_south" depart="152.65" />
	<vehicle id="veh547" type="vType_car_31.070325692282527" route="route_north_to_south" depart="155.22" />
	<vehicle id="veh550" type="vType_car_22.95614840177921" route="route_south_to_north" depart="158.02" />
	<vehicle id="veh551" type="vType_car_22.10439332405689" route="route_north_to_west" depart="158.15" />
	<vehicle id="veh552" type="vType_car_20.98966536579568" route="route_north_to_west" depart="159.85" />
	<vehicle id="veh553" type="vType_car_32.53851296968719" route="route_north_to_south" depart="163.72" />
	<vehicle id="veh555" type="vType_car_33.86726734915779" route="route_north_to_south" depart="166.86" />
	<vehicle id="veh556" type="vType_car_18.124529204612735" route="route_south_to_west" depart="169.22" />
	<vehicle id="veh557" type="vType_car_28.86210429959319" route="route_north_to_south" depart="169.52" />
</routes>
