<?xml version='1.0' encoding='utf-8'?>
<routes><vType id="vType_car_23.910906629489027" accel="1.0" decel="5.0" sigma="0.0" length="4.5" maxSpeed="6.641918508191396" /><vType id="vType_car_16.20406456396893" accel="1.0" decel="5.0" sigma="0.0" length="4.5" maxSpeed="4.501129045546925" /><vType id="vType_car_13.054789810922493" accel="1.0" decel="5.0" sigma="0.0" length="4.5" maxSpeed="3.626330503034026" /><vType id="vType_car_17.020697704099383" accel="1.0" decel="5.0" sigma="0.0" length="4.5" maxSpeed="4.7279715844720505" /><vType id="vType_car_53.643492269472745" accel="1.0" decel="5.0" sigma="0.0" length="4.5" maxSpeed="14.90097007485354" /><vType id="vType_car_65.10205640018769" accel="1.0" decel="5.0" sigma="0.0" length="4.5" maxSpeed="18.083904555607692" /><vType id="vType_car_59.30262917047696" accel="1.0" decel="5.0" sigma="0.0" length="4.5" maxSpeed="16.472952547354712" /><vType id="vType_car_35.15879038184914" accel="1.0" decel="5.0" sigma="0.0" length="4.5" maxSpeed="9.76633066162476" /><vType id="vType_car_58.8189513071956" accel="1.0" decel="5.0" sigma="0.0" length="4.5" maxSpeed="16.33859758533211" /><vType id="vType_car_51.07199395860109" accel="1.0" decel="5.0" sigma="0.0" length="4.5" maxSpeed="14.186664988500302" /><vType id="vType_car_3.541394516431931" accel="1.0" decel="5.0" sigma="0.0" length="4.5" maxSpeed="0.9837206990088697" /><vType id="vType_car_37.981105643048814" accel="1.0" decel="5.0" sigma="0.0" length="4.5" maxSpeed="10.550307123069114" /><vType id="vType_car_3.08326561322919" accel="1.0" decel="5.0" sigma="0.0" length="4.5" maxSpeed="0.8564626703414416" /><vType id="vType_car_5.080212498407868" accel="1.0" decel="5.0" sigma="0.0" length="4.5" maxSpeed="1.41117013844663" /><vType id="vType_car_33.62100313418877" accel="1.0" decel="5.0" sigma="0.0" length="4.5" maxSpeed="9.339167537274658" /><vType id="vType_car_43.185603858047195" accel="1.0" decel="5.0" sigma="0.0" length="4.5" maxSpeed="11.996001071679776" /><vType id="vType_car_16.453237400970348" accel="1.0" decel="5.0" sigma="0.0" length="4.5" maxSpeed="4.570343722491764" /><vType id="vType_car_7.593494708409068" accel="1.0" decel="5.0" sigma="0.0" length="4.5" maxSpeed="2.1093040856691854" /><vType id="vType_car_5.671361264652577" accel="1.0" decel="5.0" sigma="0.0" length="4.5" maxSpeed="1.5753781290701603" /><vType id="vType_car_9.339600856393124" accel="1.0" decel="5.0" sigma="0.0" length="4.5" maxSpeed="2.594333571220312" /><vType id="vType_car_0.49833097675740773" accel="1.0" decel="5.0" sigma="0.0" length="4.5" maxSpeed="0.13842527132150215" /><vType id="vType_car_2.0727836055322286" accel="1.0" decel="5.0" sigma="0.0" length="4.5" maxSpeed="0.5757732237589523" /><vType id="vType_car_8.123509081716806" accel="1.0" decel="5.0" sigma="0.0" length="4.5" maxSpeed="2.2565303004768906" /><vType id="vType_car_3.5237321294047885" accel="1.0" decel="5.0" sigma="0.0" length="4.5" maxSpeed="0.978814480390219" /><vType id="vType_car_18.892115701508953" accel="1.0" decel="5.0" sigma="0.0" length="4.5" maxSpeed="5.24780991708582" /><vType id="vType_car_19.10352688681729" accel="1.0" decel="5.0" sigma="0.0" length="4.5" maxSpeed="5.306535246338136" /><vType id="vType_car_14.104154323916697" accel="1.0" decel="5.0" sigma="0.0" length="4.5" maxSpeed="3.917820645532416" /><vType id="vType_car_18.883180449088936" accel="1.0" decel="5.0" sigma="0.0" length="4.5" maxSpeed="5.245327902524704" /><vType id="vType_car_28.187567838672326" accel="1.0" decel="5.0" sigma="0.0" length="4.5" maxSpeed="7.829879955186757" /><vType id="vType_car_25.862733884483667" accel="1.0" decel="5.0" sigma="0.0" length="4.5" maxSpeed="7.184092745689908" /><vType id="vType_car_13.997864782027142" accel="1.0" decel="5.0" sigma="0.0" length="4.5" maxSpeed="3.888295772785317" /><vType id="vType_car_7.105583723022117" accel="1.0" decel="5.0" sigma="0.0" length="4.5" maxSpeed="1.9737732563950325" /><vType id="vType_car_21.292785944822796" accel="1.0" decel="5.0" sigma="0.0" length="4.5" maxSpeed="5.914662762450777" /><vType id="vType_car_30.447388681475914" accel="1.0" decel="5.0" sigma="0.0" length="4.5" maxSpeed="8.457607967076642" /><vType id="vType_car_17.225376550855092" accel="1.0" decel="5.0" sigma="0.0" length="4.5" maxSpeed="4.78482681968197" /><vType id="vType_car_19.96094292367034" accel="1.0" decel="5.0" sigma="0.0" length="4.5" maxSpeed="5.544706367686206" /><vType id="vType_car_14.884574852066228" accel="1.0" decel="5.0" sigma="0.0" length="4.5" maxSpeed="4.1346041255739525" /><vType id="vType_car_24.521722404031518" accel="1.0" decel="5.0" sigma="0.0" length="4.5" maxSpeed="6.811589556675422" /><vType id="vType_car_29.052442855517896" accel="1.0" decel="5.0" sigma="0.0" length="4.5" maxSpeed="8.070123015421638" /><vType id="vType_car_28.79791712515063" accel="1.0" decel="5.0" sigma="0.0" length="4.5" maxSpeed="7.999421423652953" /><vType id="vType_car_5.947189147901745" accel="1.0" decel="5.0" sigma="0.0" length="4.5" maxSpeed="1.6519969855282624" /><vType id="vType_car_33.87234571269117" accel="1.0" decel="5.0" sigma="0.0" length="4.5" maxSpeed="9.408984920191992" /><vType id="vType_car_5.146846793809162" accel="1.0" decel="5.0" sigma="0.0" length="4.5" maxSpeed="1.4296796649469896" /><vType id="vType_car_27.064135710003203" accel="1.0" decel="5.0" sigma="0.0" length="4.5" maxSpeed="7.51781547500089" /><vType id="vType_car_20.19612614978398" accel="1.0" decel="5.0" sigma="0.0" length="4.5" maxSpeed="5.61003504160666" /><vType id="vType_car_34.29505027623641" accel="1.0" decel="5.0" sigma="0.0" length="4.5" maxSpeed="9.526402854510113" /><vType id="vType_car_17.430155620809515" accel="1.0" decel="5.0" sigma="0.0" length="4.5" maxSpeed="4.84170989466931" /><vType id="vType_car_26.977878471684573" accel="1.0" decel="5.0" sigma="0.0" length="4.5" maxSpeed="7.493855131023492" /><vType id="vType_car_22.97795485891736" accel="1.0" decel="5.0" sigma="0.0" length="4.5" maxSpeed="6.3827652385881555" /><vType id="vType_car_17.019532444988013" accel="1.0" decel="5.0" sigma="0.0" length="4.5" maxSpeed="4.727647901385559" /><vType id="vType_car_19.894131443389295" accel="1.0" decel="5.0" sigma="0.0" length="4.5" maxSpeed="5.526147623163693" /><vType id="vType_car_25.156323952781293" accel="1.0" decel="5.0" sigma="0.0" length="4.5" maxSpeed="6.98786776466147" /><vType id="vType_car_2.9599349887000224" accel="1.0" decel="5.0" sigma="0.0" length="4.5" maxSpeed="0.8222041635277839" /><vType id="vType_car_33.06866173688784" accel="1.0" decel="5.0" sigma="0.0" length="4.5" maxSpeed="9.185739371357734" /><vType id="vType_car_30.042281622219864" accel="1.0" decel="5.0" sigma="0.0" length="4.5" maxSpeed="8.345078228394406" /><vType id="vType_car_5.393714673318599" accel="1.0" decel="5.0" sigma="0.0" length="4.5" maxSpeed="1.498254075921833" /><vType id="vType_car_27.210949460727747" accel="1.0" decel="5.0" sigma="0.0" length="4.5" maxSpeed="7.558597072424374" /><vType id="vType_car_4.092015601139356" accel="1.0" decel="5.0" sigma="0.0" length="4.5" maxSpeed="1.1366710003164877" /><vType id="vType_car_36.92657737709549" accel="1.0" decel="5.0" sigma="0.0" length="4.5" maxSpeed="10.257382604748747" /><vType id="vType_car_35.881418734004434" accel="1.0" decel="5.0" sigma="0.0" length="4.5" maxSpeed="9.967060759445676" /><vType id="vType_car_29.40911539723998" accel="1.0" decel="5.0" sigma="0.0" length="4.5" maxSpeed="8.16919872145555" /><vType id="vType_car_37.29783865203081" accel="1.0" decel="5.0" sigma="0.0" length="4.5" maxSpeed="10.360510736675225" /><vType id="vType_car_33.52919949315125" accel="1.0" decel="5.0" sigma="0.0" length="4.5" maxSpeed="9.313666525875348" /><vType id="vType_car_35.97237273483298" accel="1.0" decel="5.0" sigma="0.0" length="4.5" maxSpeed="9.992325759675827" /><vType id="vType_car_35.494063639620386" accel="1.0" decel="5.0" sigma="0.0" length="4.5" maxSpeed="9.859462122116774" /><vType id="vType_car_4.596166373528276" accel="1.0" decel="5.0" sigma="0.0" length="4.5" maxSpeed="1.2767128815356321" /><vType id="vType_car_35.70311335817796" accel="1.0" decel="5.0" sigma="0.0" length="4.5" maxSpeed="9.917531488382766" /><vType id="vType_car_5.449892040105729" accel="1.0" decel="5.0" sigma="0.0" length="4.5" maxSpeed="1.513858900029369" /><vType id="vType_car_3.0756512622360948" accel="1.0" decel="5.0" sigma="0.0" length="4.5" maxSpeed="0.8543475728433596" /><vType id="vType_car_37.47567194030238" accel="1.0" decel="5.0" sigma="0.0" length="4.5" maxSpeed="10.409908872306216" /><vType id="vType_car_38.927172957966164" accel="1.0" decel="5.0" sigma="0.0" length="4.5" maxSpeed="10.813103599435046" /><vType id="vType_truck_54.49637750008181" accel="1.0" decel="5.0" sigma="0.0" length="8" maxSpeed="15.137882638911615" /><vType id="vType_car_1.1256149394070274" accel="1.0" decel="5.0" sigma="0.0" length="4.5" maxSpeed="0.31267081650195205" /><vType id="vType_car_2.0135612168027364" accel="1.0" decel="5.0" sigma="0.0" length="4.5" maxSpeed="0.5593225602229823" /><route id="route_north_to_east" edges="north_to_center center_to_east" /><route id="route_north_to_south" edges="north_to_center center_to_south" /><route id="route_north_to_west" edges="north_to_center center_to_west" /><route id="route_east_to_west" edges="east_to_center center_to_west" /><route id="route_east_to_south" edges="east_to_center center_to_south" /><route id="route_east_to_north" edges="east_to_center center_to_north" /><route id="route_south_to_west" edges="south_to_center center_to_west" /><route id="route_south_to_north" edges="south_to_center center_to_north" /><route id="route_south_to_east" edges="south_to_center center_to_east" /><route id="route_west_to_south" edges="west_to_center center_to_south" /><route id="route_west_to_north" edges="west_to_center center_to_north" /><route id="route_west_to_east" edges="west_to_center center_to_east" /><vehicle id="veh977" type="vType_car_23.910906629489027" route="route_north_to_south" depart="0.04" /><vehicle id="veh1006" type="vType_car_16.20406456396893" route="route_north_to_east" depart="0.04" /><vehicle id="veh1043" type="vType_car_13.054789810922493" route="route_north_to_east" depart="0.04" /><vehicle id="veh1143" type="vType_car_58.8189513071956" route="route_east_to_west" depart="0.04" /><vehicle id="veh1146" type="vType_car_51.07199395860109" route="route_east_to_west" depart="0.07" /><vehicle id="veh1150" type="vType_car_37.981105643048814" route="route_east_to_west" depart="0.21" /><vehicle id="veh1154" type="vType_car_33.62100313418877" route="route_east_to_south" depart="1.50" /><vehicle id="veh1155" type="vType_car_43.185603858047195" route="route_east_to_west" depart="1.72" /><vehicle id="veh1156" type="vType_car_16.453237400970348" route="route_south_to_east" depart="2.29" /><vehicle id="veh1164" type="vType_car_9.339600856393124" route="route_south_to_east" depart="4.76" /><vehicle id="veh1173" type="vType_car_18.892115701508953" route="route_north_to_south" depart="8.15" /><vehicle id="veh1174" type="vType_car_19.10352688681729" route="route_north_to_west" depart="9.40" /><vehicle id="veh1176" type="vType_car_14.104154323916697" route="route_north_to_east" depart="11.01" /><vehicle id="veh1177" type="vType_car_18.883180449088936" route="route_north_to_west" depart="11.08" /><vehicle id="veh1178" type="vType_car_28.187567838672326" route="route_north_to_south" depart="11.19" /><vehicle id="veh1179" type="vType_car_25.862733884483667" route="route_north_to_south" depart="11.62" /><vehicle id="veh1184" type="vType_car_13.997864782027142" route="route_north_to_east" depart="14.52" /><vehicle id="veh1186" type="vType_car_21.292785944822796" route="route_north_to_west" depart="14.55" /><vehicle id="veh1187" type="vType_car_30.447388681475914" route="route_north_to_south" depart="14.91" /><vehicle id="veh1191" type="vType_car_19.96094292367034" route="route_north_to_west" depart="18.27" /><vehicle id="veh1193" type="vType_car_14.884574852066228" route="route_north_to_south" depart="18.45" /><vehicle id="veh1196" type="vType_car_24.521722404031518" route="route_north_to_west" depart="20.74" /><vehicle id="veh1197" type="vType_car_29.052442855517896" route="route_north_to_south" depart="21.10" /><vehicle id="veh1200" type="vType_car_28.79791712515063" route="route_north_to_south" depart="23.46" /><vehicle id="veh1204" type="vType_car_33.87234571269117" route="route_north_to_south" depart="25.71" /><vehicle id="veh1211" type="vType_car_20.19612614978398" route="route_south_to_north" depart="27.10" /><vehicle id="veh1212" type="vType_car_34.29505027623641" route="route_north_to_south" depart="27.18" /><vehicle id="veh1215" type="vType_car_22.97795485891736" route="route_south_to_north" depart="30.75" /><vehicle id="veh1216" type="vType_car_17.019532444988013" route="route_south_to_east" depart="30.89" /><vehicle id="veh1220" type="vType_car_19.894131443389295" route="route_north_to_west" depart="31.75" /><vehicle id="veh1221" type="vType_car_25.156323952781293" route="route_south_to_north" depart="31.86" /><vehicle id="veh1229" type="vType_car_33.06866173688784" route="route_north_to_south" depart="33.25" /><vehicle id="veh1230" type="vType_car_30.042281622219864" route="route_north_to_south" depart="34.18" /><vehicle id="veh1233" type="vType_car_27.210949460727747" route="route_south_to_north" depart="34.76" /><vehicle id="veh1236" type="vType_car_36.92657737709549" route="route_north_to_south" depart="37.69" /><vehicle id="veh1238" type="vType_car_35.881418734004434" route="route_south_to_north" depart="38.15" /><vehicle id="veh1241" type="vType_car_29.40911539723998" route="route_south_to_north" depart="40.01" /><vehicle id="veh1245" type="vType_car_33.52919949315125" route="route_south_to_north" depart="41.98" /><vehicle id="veh1246" type="vType_car_35.97237273483298" route="route_south_to_north" depart="42.02" /><vehicle id="veh1247" type="vType_car_35.494063639620386" route="route_south_to_north" depart="43.41" /><vehicle id="veh1252" type="vType_car_35.70311335817796" route="route_south_to_north" depart="44.80" /><vehicle id="veh1257" type="vType_car_37.47567194030238" route="route_south_to_north" depart="47.02" /><vehicle id="veh1260" type="vType_car_38.927172957966164" route="route_south_to_north" depart="48.17" /></routes>