<?xml version='1.0' encoding='utf-8'?>
<routes><vType id="vType_car_29.75473649769024" accel="1.0" decel="5.0" sigma="0.0" length="4.5" maxSpeed="8.265204582691732" /><vType id="vType_car_18.81977748969766" accel="1.0" decel="5.0" sigma="0.0" length="4.5" maxSpeed="5.227715969360461" /><vType id="vType_car_7.301674956827955" accel="1.0" decel="5.0" sigma="0.0" length="4.5" maxSpeed="2.0282430435633207" /><vType id="vType_car_11.688454140944856" accel="1.0" decel="5.0" sigma="0.0" length="4.5" maxSpeed="3.2467928169291267" /><vType id="vType_car_8.251273576179376" accel="1.0" decel="5.0" sigma="0.0" length="4.5" maxSpeed="2.2920204378276043" /><vType id="vType_car_24.456185322730285" accel="1.0" decel="5.0" sigma="0.0" length="4.5" maxSpeed="6.793384811869523" /><vType id="vType_car_2.623421053847467" accel="1.0" decel="5.0" sigma="0.0" length="4.5" maxSpeed="0.7287280705131852" /><vType id="vType_car_15.068002943291281" accel="1.0" decel="5.0" sigma="0.0" length="4.5" maxSpeed="4.185556373136467" /><vType id="vType_car_25.79517290725698" accel="1.0" decel="5.0" sigma="0.0" length="4.5" maxSpeed="7.165325807571383" /><vType id="vType_car_20.376110721851767" accel="1.0" decel="5.0" sigma="0.0" length="4.5" maxSpeed="5.660030756069935" /><vType id="vType_car_19.196417935430176" accel="1.0" decel="5.0" sigma="0.0" length="4.5" maxSpeed="5.332338315397271" /><vType id="vType_car_3.3951024804372225" accel="1.0" decel="5.0" sigma="0.0" length="4.5" maxSpeed="0.943084022343673" /><vType id="vType_car_13.322995318431222" accel="1.0" decel="5.0" sigma="0.0" length="4.5" maxSpeed="3.7008320328975612" /><vType id="vType_car_25.849673253584132" accel="1.0" decel="5.0" sigma="0.0" length="4.5" maxSpeed="7.180464792662259" /><vType id="vType_car_18.292039920729547" accel="1.0" decel="5.0" sigma="0.0" length="4.5" maxSpeed="5.0811222002026515" /><vType id="vType_car_21.477750897766644" accel="1.0" decel="5.0" sigma="0.0" length="4.5" maxSpeed="5.96604191604629" /><vType id="vType_car_15.918340067214295" accel="1.0" decel="5.0" sigma="0.0" length="4.5" maxSpeed="4.421761129781749" /><vType id="vType_car_28.112180307839395" accel="1.0" decel="5.0" sigma="0.0" length="4.5" maxSpeed="7.808938974399831" /><vType id="vType_car_17.10850820598365" accel="1.0" decel="5.0" sigma="0.0" length="4.5" maxSpeed="4.752363390551014" /><vType id="vType_car_19.29672177231751" accel="1.0" decel="5.0" sigma="0.0" length="4.5" maxSpeed="5.36020049231042" /><vType id="vType_car_17.467375718585956" accel="1.0" decel="5.0" sigma="0.0" length="4.5" maxSpeed="4.852048810718321" /><vType id="vType_car_17.12521224421776" accel="1.0" decel="5.0" sigma="0.0" length="4.5" maxSpeed="4.7570034011716" /><vType id="vType_car_21.263650305231256" accel="1.0" decel="5.0" sigma="0.0" length="4.5" maxSpeed="5.906569529230905" /><vType id="vType_car_30.90310979250521" accel="1.0" decel="5.0" sigma="0.0" length="4.5" maxSpeed="8.58419716458478" /><vType id="vType_car_14.59042480291188" accel="1.0" decel="5.0" sigma="0.0" length="4.5" maxSpeed="4.052895778586633" /><vType id="vType_car_16.025168558858084" accel="1.0" decel="5.0" sigma="0.0" length="4.5" maxSpeed="4.451435710793912" /><vType id="vType_car_18.34780509956491" accel="1.0" decel="5.0" sigma="0.0" length="4.5" maxSpeed="5.0966125276569185" /><vType id="vType_car_15.922530325869179" accel="1.0" decel="5.0" sigma="0.0" length="4.5" maxSpeed="4.422925090519216" /><vType id="vType_car_16.16970279787948" accel="1.0" decel="5.0" sigma="0.0" length="4.5" maxSpeed="4.491584110522078" /><vType id="vType_car_27.134354142017294" accel="1.0" decel="5.0" sigma="0.0" length="4.5" maxSpeed="7.537320595004804" /><vType id="vType_car_7.6868476615837" accel="1.0" decel="5.0" sigma="0.0" length="4.5" maxSpeed="2.135235461551028" /><vType id="vType_car_20.77994032474344" accel="1.0" decel="5.0" sigma="0.0" length="4.5" maxSpeed="5.7722056457620665" /><vType id="vType_car_16.41311257950863" accel="1.0" decel="5.0" sigma="0.0" length="4.5" maxSpeed="4.559197938752398" /><vType id="vType_car_20.754986905508158" accel="1.0" decel="5.0" sigma="0.0" length="4.5" maxSpeed="5.765274140418932" /><vType id="vType_car_21.394078979393488" accel="1.0" decel="5.0" sigma="0.0" length="4.5" maxSpeed="5.9427997164981905" /><vType id="vType_car_16.84949308734069" accel="1.0" decel="5.0" sigma="0.0" length="4.5" maxSpeed="4.680414746483525" /><vType id="vType_car_3.0451007484055608" accel="1.0" decel="5.0" sigma="0.0" length="4.5" maxSpeed="0.8458613190015446" /><vType id="vType_car_21.061270401637557" accel="1.0" decel="5.0" sigma="0.0" length="4.5" maxSpeed="5.850352889343766" /><vType id="vType_car_15.876718327608142" accel="1.0" decel="5.0" sigma="0.0" length="4.5" maxSpeed="4.410199535446706" /><vType id="vType_car_16.608636955645157" accel="1.0" decel="5.0" sigma="0.0" length="4.5" maxSpeed="4.613510265456988" /><vType id="vType_car_28.139419466630464" accel="1.0" decel="5.0" sigma="0.0" length="4.5" maxSpeed="7.816505407397351" /><vType id="vType_car_21.219660750041818" accel="1.0" decel="5.0" sigma="0.0" length="4.5" maxSpeed="5.8943502083449495" /><vType id="vType_car_8.93145475993739" accel="1.0" decel="5.0" sigma="0.0" length="4.5" maxSpeed="2.4809596555381637" /><vType id="vType_car_18.65265214907141" accel="1.0" decel="5.0" sigma="0.0" length="4.5" maxSpeed="5.181292263630947" /><vType id="vType_car_16.419502256921703" accel="1.0" decel="5.0" sigma="0.0" length="4.5" maxSpeed="4.5609728491449175" /><vType id="vType_car_23.456391118127538" accel="1.0" decel="5.0" sigma="0.0" length="4.5" maxSpeed="6.515664199479872" /><vType id="vType_car_15.882217211416654" accel="1.0" decel="5.0" sigma="0.0" length="4.5" maxSpeed="4.4117270031712925" /><vType id="vType_car_3.960201094558474" accel="1.0" decel="5.0" sigma="0.0" length="4.5" maxSpeed="1.1000558595995762" /><vType id="vType_car_22.431063209399742" accel="1.0" decel="5.0" sigma="0.0" length="4.5" maxSpeed="6.230850891499928" /><vType id="vType_car_9.725910232022047" accel="1.0" decel="5.0" sigma="0.0" length="4.5" maxSpeed="2.701641731117235" /><vType id="vType_car_30.17583626928623" accel="1.0" decel="5.0" sigma="0.0" length="4.5" maxSpeed="8.382176741468397" /><vType id="vType_car_16.436240405685343" accel="1.0" decel="5.0" sigma="0.0" length="4.5" maxSpeed="4.565622334912595" /><vType id="vType_car_9.653053065738838" accel="1.0" decel="5.0" sigma="0.0" length="4.5" maxSpeed="2.6814036293718995" /><vType id="vType_car_29.68922676349931" accel="1.0" decel="5.0" sigma="0.0" length="4.5" maxSpeed="8.247007434305363" /><vType id="vType_car_12.315945695823256" accel="1.0" decel="5.0" sigma="0.0" length="4.5" maxSpeed="3.421096026617571" /><vType id="vType_car_22.71698186819481" accel="1.0" decel="5.0" sigma="0.0" length="4.5" maxSpeed="6.310272741165225" /><vType id="vType_car_33.97841535269017" accel="1.0" decel="5.0" sigma="0.0" length="4.5" maxSpeed="9.438448709080603" /><vType id="vType_car_5.290014421587904" accel="1.0" decel="5.0" sigma="0.0" length="4.5" maxSpeed="1.4694484504410845" /><vType id="vType_car_15.930759676441276" accel="1.0" decel="5.0" sigma="0.0" length="4.5" maxSpeed="4.425211021233688" /><vType id="vType_car_31.499925500590855" accel="1.0" decel="5.0" sigma="0.0" length="4.5" maxSpeed="8.749979305719682" /><vType id="vType_car_26.497211493554822" accel="1.0" decel="5.0" sigma="0.0" length="4.5" maxSpeed="7.36033652598745" /><vType id="vType_car_20.260231796573045" accel="1.0" decel="5.0" sigma="0.0" length="4.5" maxSpeed="5.627842165714735" /><vType id="vType_car_18.811050562835824" accel="1.0" decel="5.0" sigma="0.0" length="4.5" maxSpeed="5.225291823009951" /><vType id="vType_truck_8.692305881253588" accel="1.0" decel="5.0" sigma="0.0" length="8" maxSpeed="2.41452941145933" /><vType id="vType_car_24.126425594964132" accel="1.0" decel="5.0" sigma="0.0" length="4.5" maxSpeed="6.701784887490037" /><vType id="vType_car_26.35201706660149" accel="1.0" decel="5.0" sigma="0.0" length="4.5" maxSpeed="7.320004740722636" /><vType id="vType_car_29.88463854272695" accel="1.0" decel="5.0" sigma="0.0" length="4.5" maxSpeed="8.301288484090819" /><vType id="vType_car_14.038605069652217" accel="1.0" decel="5.0" sigma="0.0" length="4.5" maxSpeed="3.899612519347838" /><vType id="vType_car_20.67931515149258" accel="1.0" decel="5.0" sigma="0.0" length="4.5" maxSpeed="5.744254208747939" /><vType id="vType_car_32.44956021405462" accel="1.0" decel="5.0" sigma="0.0" length="4.5" maxSpeed="9.013766726126283" /><vType id="vType_car_8.770177449024008" accel="1.0" decel="5.0" sigma="0.0" length="4.5" maxSpeed="2.4361604025066685" /><vType id="vType_car_3.777726317540352" accel="1.0" decel="5.0" sigma="0.0" length="4.5" maxSpeed="1.0493684215389867" /><vType id="vType_car_27.802248556650333" accel="1.0" decel="5.0" sigma="0.0" length="4.5" maxSpeed="7.722846821291759" /><vType id="vType_car_4.950365020092666" accel="1.0" decel="5.0" sigma="0.0" length="4.5" maxSpeed="1.3751013944701849" /><vType id="vType_car_19.090024886318822" accel="1.0" decel="5.0" sigma="0.0" length="4.5" maxSpeed="5.302784690644117" /><vType id="vType_car_21.1237659014899" accel="1.0" decel="5.0" sigma="0.0" length="4.5" maxSpeed="5.867712750413861" /><vType id="vType_truck_11.90105590215718" accel="1.0" decel="5.0" sigma="0.0" length="8" maxSpeed="3.3058488617103277" /><vType id="vType_car_6.01896378337911" accel="1.0" decel="5.0" sigma="0.0" length="4.5" maxSpeed="1.671934384271975" /><vType id="vType_car_26.832426424920538" accel="1.0" decel="5.0" sigma="0.0" length="4.5" maxSpeed="7.45345178470015" /><vType id="vType_truck_4.907500634462906" accel="1.0" decel="5.0" sigma="0.0" length="8" maxSpeed="1.3631946206841405" /><vType id="vType_car_25.632844312794997" accel="1.0" decel="5.0" sigma="0.0" length="4.5" maxSpeed="7.120234531331944" /><vType id="vType_car_20.613661080256193" accel="1.0" decel="5.0" sigma="0.0" length="4.5" maxSpeed="5.726016966737832" /><vType id="vType_car_11.898947313255317" accel="1.0" decel="5.0" sigma="0.0" length="4.5" maxSpeed="3.3052631425709214" /><vType id="vType_car_5.404427678383659" accel="1.0" decel="5.0" sigma="0.0" length="4.5" maxSpeed="1.5012299106621274" /><vType id="vType_car_29.013020512345797" accel="1.0" decel="5.0" sigma="0.0" length="4.5" maxSpeed="8.0591723645405" /><vType id="vType_car_18.793069499640644" accel="1.0" decel="5.0" sigma="0.0" length="4.5" maxSpeed="5.220297083233512" /><vType id="vType_car_20.388095336021017" accel="1.0" decel="5.0" sigma="0.0" length="4.5" maxSpeed="5.663359815561393" /><vType id="vType_car_20.081811539248015" accel="1.0" decel="5.0" sigma="0.0" length="4.5" maxSpeed="5.578280983124449" /><vType id="vType_car_16.15988552736002" accel="1.0" decel="5.0" sigma="0.0" length="4.5" maxSpeed="4.488857090933339" /><vType id="vType_car_18.016075696261506" accel="1.0" decel="5.0" sigma="0.0" length="4.5" maxSpeed="5.004465471183751" /><vType id="vType_car_34.61183291099824" accel="1.0" decel="5.0" sigma="0.0" length="4.5" maxSpeed="9.614398030832843" /><vType id="vType_car_18.20945806119515" accel="1.0" decel="5.0" sigma="0.0" length="4.5" maxSpeed="5.058182794776431" /><vType id="vType_car_11.923980433063075" accel="1.0" decel="5.0" sigma="0.0" length="4.5" maxSpeed="3.312216786961965" /><vType id="vType_car_7.7805165055624625" accel="1.0" decel="5.0" sigma="0.0" length="4.5" maxSpeed="2.1612545848784617" /><vType id="vType_car_6.8948823198047595" accel="1.0" decel="5.0" sigma="0.0" length="4.5" maxSpeed="1.9152450888346553" /><vType id="vType_car_23.17517546090189" accel="1.0" decel="5.0" sigma="0.0" length="4.5" maxSpeed="6.437548739139414" /><vType id="vType_car_41.204548967997354" accel="1.0" decel="5.0" sigma="0.0" length="4.5" maxSpeed="11.445708046665931" /><vType id="vType_car_28.243325621187914" accel="1.0" decel="5.0" sigma="0.0" length="4.5" maxSpeed="7.845368228107754" /><vType id="vType_car_41.4116442794132" accel="1.0" decel="5.0" sigma="0.0" length="4.5" maxSpeed="11.503234522059223" /><vType id="vType_car_47.908383521064" accel="1.0" decel="5.0" sigma="0.0" length="4.5" maxSpeed="13.307884311406667" /><vType id="vType_car_26.00840180890218" accel="1.0" decel="5.0" sigma="0.0" length="4.5" maxSpeed="7.224556058028383" /><vType id="vType_car_49.51763052609229" accel="1.0" decel="5.0" sigma="0.0" length="4.5" maxSpeed="13.75489736835897" /><vType id="vType_car_30.341653779092614" accel="1.0" decel="5.0" sigma="0.0" length="4.5" maxSpeed="8.428237160859059" /><vType id="vType_car_3.963413784737982" accel="1.0" decel="5.0" sigma="0.0" length="4.5" maxSpeed="1.1009482735383282" /><vType id="vType_car_41.471472264719445" accel="1.0" decel="5.0" sigma="0.0" length="4.5" maxSpeed="11.519853406866511" /><vType id="vType_car_53.41780283903042" accel="1.0" decel="5.0" sigma="0.0" length="4.5" maxSpeed="14.838278566397339" /><vType id="vType_car_1.9882770092317643" accel="1.0" decel="5.0" sigma="0.0" length="4.5" maxSpeed="0.5522991692310456" /><vType id="vType_car_51.724159783728915" accel="1.0" decel="5.0" sigma="0.0" length="4.5" maxSpeed="14.36782216214692" /><vType id="vType_car_31.257508887071165" accel="1.0" decel="5.0" sigma="0.0" length="4.5" maxSpeed="8.682641357519767" /><vType id="vType_car_4.542997538937468" accel="1.0" decel="5.0" sigma="0.0" length="4.5" maxSpeed="1.2619437608159632" /><vType id="vType_car_9.904196172742422" accel="1.0" decel="5.0" sigma="0.0" length="4.5" maxSpeed="2.7511656035395617" /><vType id="vType_car_33.868951428799335" accel="1.0" decel="5.0" sigma="0.0" length="4.5" maxSpeed="9.40804206355537" /><vType id="vType_car_38.53371378296463" accel="1.0" decel="5.0" sigma="0.0" length="4.5" maxSpeed="10.703809384156843" /><vType id="vType_car_44.15924718146963" accel="1.0" decel="5.0" sigma="0.0" length="4.5" maxSpeed="12.26645755040823" /><vType id="vType_car_48.52227712608644" accel="1.0" decel="5.0" sigma="0.0" length="4.5" maxSpeed="13.47841031280179" /><vType id="vType_car_38.19512042922225" accel="1.0" decel="5.0" sigma="0.0" length="4.5" maxSpeed="10.609755674783958" /><vType id="vType_car_6.360315228184422" accel="1.0" decel="5.0" sigma="0.0" length="4.5" maxSpeed="1.7667542300512284" /><vType id="vType_car_27.62238179772588" accel="1.0" decel="5.0" sigma="0.0" length="4.5" maxSpeed="7.672883832701633" /><vType id="vType_car_8.786126966469672" accel="1.0" decel="5.0" sigma="0.0" length="4.5" maxSpeed="2.440590824019353" /><vType id="vType_car_35.38845521520718" accel="1.0" decel="5.0" sigma="0.0" length="4.5" maxSpeed="9.830126448668661" /><vType id="vType_car_21.955850579393168" accel="1.0" decel="5.0" sigma="0.0" length="4.5" maxSpeed="6.0988473831647685" /><vType id="vType_car_24.641620098491416" accel="1.0" decel="5.0" sigma="0.0" length="4.5" maxSpeed="6.844894471803171" /><vType id="vType_car_9.696239329405136" accel="1.0" decel="5.0" sigma="0.0" length="4.5" maxSpeed="2.693399813723649" /><vType id="vType_car_21.900572628834908" accel="1.0" decel="5.0" sigma="0.0" length="4.5" maxSpeed="6.083492396898586" /><vType id="vType_car_16.147030369487325" accel="1.0" decel="5.0" sigma="0.0" length="4.5" maxSpeed="4.4852862137464795" /><vType id="vType_car_32.61793867666442" accel="1.0" decel="5.0" sigma="0.0" length="4.5" maxSpeed="9.060538521295673" /><vType id="vType_car_17.992367476080712" accel="1.0" decel="5.0" sigma="0.0" length="4.5" maxSpeed="4.997879854466865" /><vType id="vType_car_27.085735423338438" accel="1.0" decel="5.0" sigma="0.0" length="4.5" maxSpeed="7.523815395371788" /><vType id="vType_car_4.8602929685551555" accel="1.0" decel="5.0" sigma="0.0" length="4.5" maxSpeed="1.3500813801542098" /><vType id="vType_car_15.81171789470964" accel="1.0" decel="5.0" sigma="0.0" length="4.5" maxSpeed="4.392143859641567" /><vType id="vType_car_23.127045016817103" accel="1.0" decel="5.0" sigma="0.0" length="4.5" maxSpeed="6.424179171338084" /><vType id="vType_car_17.176623684437732" accel="1.0" decel="5.0" sigma="0.0" length="4.5" maxSpeed="4.771284356788259" /><vType id="vType_car_19.491460210671065" accel="1.0" decel="5.0" sigma="0.0" length="4.5" maxSpeed="5.414294502964185" /><vType id="vType_car_26.036290495468986" accel="1.0" decel="5.0" sigma="0.0" length="4.5" maxSpeed="7.232302915408051" /><vType id="vType_car_18.92032028934648" accel="1.0" decel="5.0" sigma="0.0" length="4.5" maxSpeed="5.255644524818467" /><vType id="vType_car_16.274565661804317" accel="1.0" decel="5.0" sigma="0.0" length="4.5" maxSpeed="4.520712683834533" /><vType id="vType_car_4.160577238509048" accel="1.0" decel="5.0" sigma="0.0" length="4.5" maxSpeed="1.1557158995858468" /><vType id="vType_car_30.99139275004223" accel="1.0" decel="5.0" sigma="0.0" length="4.5" maxSpeed="8.608720208345064" /><vType id="vType_car_16.784379439952886" accel="1.0" decel="5.0" sigma="0.0" length="4.5" maxSpeed="4.662327622209135" /><vType id="vType_car_30.50958311328796" accel="1.0" decel="5.0" sigma="0.0" length="4.5" maxSpeed="8.474884198135545" /><vType id="vType_car_30.421912071110008" accel="1.0" decel="5.0" sigma="0.0" length="4.5" maxSpeed="8.45053113086389" /><vType id="vType_car_16.617148925980555" accel="1.0" decel="5.0" sigma="0.0" length="4.5" maxSpeed="4.615874701661265" /><vType id="vType_car_11.926088090678789" accel="1.0" decel="5.0" sigma="0.0" length="4.5" maxSpeed="3.3128022474107746" /><vType id="vType_car_17.722342262443885" accel="1.0" decel="5.0" sigma="0.0" length="4.5" maxSpeed="4.922872850678857" /><vType id="vType_car_23.823440901614475" accel="1.0" decel="5.0" sigma="0.0" length="4.5" maxSpeed="6.617622472670687" /><vType id="vType_car_5.886615187178749" accel="1.0" decel="5.0" sigma="0.0" length="4.5" maxSpeed="1.6351708853274303" /><vType id="vType_car_22.59140918042725" accel="1.0" decel="5.0" sigma="0.0" length="4.5" maxSpeed="6.275391439007569" /><vType id="vType_car_17.297763149971697" accel="1.0" decel="5.0" sigma="0.0" length="4.5" maxSpeed="4.804934208325471" /><vType id="vType_car_26.420025918096034" accel="1.0" decel="5.0" sigma="0.0" length="4.5" maxSpeed="7.338896088360009" /><vType id="vType_car_18.015840145369456" accel="1.0" decel="5.0" sigma="0.0" length="4.5" maxSpeed="5.004400040380404" /><vType id="vType_car_8.011669275360827" accel="1.0" decel="5.0" sigma="0.0" length="4.5" maxSpeed="2.2254636876002296" /><vType id="vType_car_18.01249968283703" accel="1.0" decel="5.0" sigma="0.0" length="4.5" maxSpeed="5.003472134121398" /><vType id="vType_car_27.416151006419295" accel="1.0" decel="5.0" sigma="0.0" length="4.5" maxSpeed="7.615597501783137" /><vType id="vType_car_4.545203791857943" accel="1.0" decel="5.0" sigma="0.0" length="4.5" maxSpeed="1.2625566088494284" /><vType id="vType_car_21.440220416423827" accel="1.0" decel="5.0" sigma="0.0" length="4.5" maxSpeed="5.955616782339952" /><vType id="vType_car_3.4111053447997906" accel="1.0" decel="5.0" sigma="0.0" length="4.5" maxSpeed="0.9475292624443863" /><vType id="vType_car_13.898427706229468" accel="1.0" decel="5.0" sigma="0.0" length="4.5" maxSpeed="3.8606743628415185" /><vType id="vType_car_24.03286875842659" accel="1.0" decel="5.0" sigma="0.0" length="4.5" maxSpeed="6.675796877340719" /><vType id="vType_car_14.544680203310959" accel="1.0" decel="5.0" sigma="0.0" length="4.5" maxSpeed="4.0401889453641555" /><vType id="vType_car_29.54477862743428" accel="1.0" decel="5.0" sigma="0.0" length="4.5" maxSpeed="8.206882952065078" /><vType id="vType_car_3.1072854445358424" accel="1.0" decel="5.0" sigma="0.0" length="4.5" maxSpeed="0.8631348457044007" /><vType id="vType_car_3.7285057016088947" accel="1.0" decel="5.0" sigma="0.0" length="4.5" maxSpeed="1.035696028224693" /><vType id="vType_car_21.925408437560023" accel="1.0" decel="5.0" sigma="0.0" length="4.5" maxSpeed="6.090391232655562" /><vType id="vType_car_4.234469716826089" accel="1.0" decel="5.0" sigma="0.0" length="4.5" maxSpeed="1.176241588007247" /><vType id="vType_car_13.05294515851075" accel="1.0" decel="5.0" sigma="0.0" length="4.5" maxSpeed="3.6258180995863194" /><vType id="vType_car_4.301187822806886" accel="1.0" decel="5.0" sigma="0.0" length="4.5" maxSpeed="1.194774395224135" /><vType id="vType_car_4.621024026362398" accel="1.0" decel="5.0" sigma="0.0" length="4.5" maxSpeed="1.283617785100666" /><vType id="vType_car_3.7482647099847886" accel="1.0" decel="5.0" sigma="0.0" length="4.5" maxSpeed="1.0411846416624413" /><vType id="vType_car_40.291202239260414" accel="1.0" decel="5.0" sigma="0.0" length="4.5" maxSpeed="11.192000622016781" /><route id="route_north_to_east" edges="north_to_center center_to_east" /><route id="route_north_to_south" edges="north_to_center center_to_south" /><route id="route_north_to_west" edges="north_to_center center_to_west" /><route id="route_east_to_west" edges="east_to_center center_to_west" /><route id="route_east_to_south" edges="east_to_center center_to_south" /><route id="route_east_to_north" edges="east_to_center center_to_north" /><route id="route_south_to_west" edges="south_to_center center_to_west" /><route id="route_south_to_north" edges="south_to_center center_to_north" /><route id="route_south_to_east" edges="south_to_center center_to_east" /><route id="route_west_to_south" edges="west_to_center center_to_south" /><route id="route_west_to_north" edges="west_to_center center_to_north" /><route id="route_west_to_east" edges="west_to_center center_to_east" /><vehicle id="veh792" type="vType_car_29.75473649769024" route="route_north_to_south" depart="0.03" /><vehicle id="veh808" type="vType_car_18.81977748969766" route="route_north_to_east" depart="0.03" /><vehicle id="veh833" type="vType_car_7.301674956827955" route="route_west_to_north" depart="0.03" /><vehicle id="veh856" type="vType_car_11.688454140944856" route="route_west_to_east" depart="0.03" /><vehicle id="veh841" type="vType_car_8.251273576179376" route="route_west_to_north" depart="0.03" /><vehicle id="veh859" type="vType_car_24.456185322730285" route="route_north_to_west" depart="0.47" /><vehicle id="veh861" type="vType_car_15.068002943291281" route="route_north_to_east" depart="1.17" /><vehicle id="veh862" type="vType_car_25.79517290725698" route="route_north_to_south" depart="2.40" /><vehicle id="veh863" type="vType_car_20.376110721851767" route="route_north_to_west" depart="4.14" /><vehicle id="veh864" type="vType_car_19.196417935430176" route="route_north_to_east" depart="4.50" /><vehicle id="veh867" type="vType_car_13.322995318431222" route="route_north_to_east" depart="5.44" /><vehicle id="veh868" type="vType_car_25.849673253584132" route="route_north_to_south" depart="7.14" /><vehicle id="veh870" type="vType_car_18.292039920729547" route="route_north_to_east" depart="9.24" /><vehicle id="veh871" type="vType_car_21.477750897766644" route="route_north_to_west" depart="9.27" /><vehicle id="veh873" type="vType_car_15.918340067214295" route="route_north_to_east" depart="11.24" /><vehicle id="veh874" type="vType_car_28.112180307839395" route="route_north_to_south" depart="11.81" /><vehicle id="veh875" type="vType_car_17.10850820598365" route="route_north_to_east" depart="12.27" /><vehicle id="veh876" type="vType_car_19.29672177231751" route="route_north_to_west" depart="14.18" /><vehicle id="veh877" type="vType_car_17.467375718585956" route="route_north_to_east" depart="15.74" /><vehicle id="veh878" type="vType_car_17.12521224421776" route="route_north_to_east" depart="17.28" /><vehicle id="veh879" type="vType_car_21.263650305231256" route="route_north_to_west" depart="17.31" /><vehicle id="veh880" type="vType_car_30.90310979250521" route="route_north_to_south" depart="18.71" /><vehicle id="veh881" type="vType_car_14.59042480291188" route="route_north_to_east" depart="19.41" /><vehicle id="veh882" type="vType_car_16.025168558858084" route="route_north_to_east" depart="21.81" /><vehicle id="veh883" type="vType_car_18.34780509956491" route="route_north_to_west" depart="22.08" /><vehicle id="veh884" type="vType_car_15.922530325869179" route="route_north_to_east" depart="23.71" /><vehicle id="veh886" type="vType_car_16.16970279787948" route="route_north_to_east" depart="25.68" /><vehicle id="veh887" type="vType_car_27.134354142017294" route="route_north_to_south" depart="26.82" /><vehicle id="veh889" type="vType_car_20.77994032474344" route="route_north_to_west" depart="29.15" /><vehicle id="veh890" type="vType_car_16.41311257950863" route="route_north_to_east" depart="30.05" /><vehicle id="veh893" type="vType_car_20.754986905508158" route="route_north_to_east" depart="30.92" /><vehicle id="veh895" type="vType_car_21.394078979393488" route="route_north_to_west" depart="31.25" /><vehicle id="veh896" type="vType_car_16.84949308734069" route="route_north_to_east" depart="31.25" /><vehicle id="veh899" type="vType_car_21.061270401637557" route="route_north_to_west" depart="32.72" /><vehicle id="veh900" type="vType_car_15.876718327608142" route="route_north_to_east" depart="32.92" /><vehicle id="veh902" type="vType_car_16.608636955645157" route="route_north_to_east" depart="35.49" /><vehicle id="veh903" type="vType_car_28.139419466630464" route="route_north_to_south" depart="36.19" /><vehicle id="veh904" type="vType_car_21.219660750041818" route="route_north_to_west" depart="36.42" /><vehicle id="veh905" type="vType_car_8.93145475993739" route="route_north_to_east" depart="37.06" /><vehicle id="veh908" type="vType_car_18.65265214907141" route="route_north_to_west" depart="39.19" /><vehicle id="veh909" type="vType_car_16.419502256921703" route="route_north_to_east" depart="39.26" /><vehicle id="veh910" type="vType_car_23.456391118127538" route="route_north_to_south" depart="40.42" /><vehicle id="veh911" type="vType_car_15.882217211416654" route="route_north_to_east" depart="42.66" /><vehicle id="veh915" type="vType_car_22.431063209399742" route="route_north_to_west" depart="44.59" /><vehicle id="veh917" type="vType_car_9.725910232022047" route="route_east_to_north" depart="45.36" /><vehicle id="veh918" type="vType_car_30.17583626928623" route="route_north_to_south" depart="45.96" /><vehicle id="veh920" type="vType_car_16.436240405685343" route="route_north_to_east" depart="46.33" /><vehicle id="veh923" type="vType_car_9.653053065738838" route="route_east_to_north" depart="46.63" /><vehicle id="veh925" type="vType_car_29.68922676349931" route="route_north_to_south" depart="47.70" /><vehicle id="veh927" type="vType_car_12.315945695823256" route="route_north_to_east" depart="48.43" /><vehicle id="veh928" type="vType_car_22.71698186819481" route="route_north_to_west" depart="49.70" /><vehicle id="veh930" type="vType_car_33.97841535269017" route="route_north_to_south" depart="50.56" /><vehicle id="veh932" type="vType_car_15.930759676441276" route="route_south_to_north" depart="52.40" /><vehicle id="veh934" type="vType_car_26.497211493554822" route="route_north_to_south" depart="53.43" /><vehicle id="veh939" type="vType_car_20.260231796573045" route="route_south_to_north" depart="55.23" /><vehicle id="veh940" type="vType_car_18.811050562835824" route="route_south_to_north" depart="55.27" /><vehicle id="veh944" type="vType_car_24.126425594964132" route="route_north_to_west" depart="56.47" /><vehicle id="veh945" type="vType_car_26.35201706660149" route="route_south_to_north" depart="56.53" /><vehicle id="veh946" type="vType_car_29.88463854272695" route="route_north_to_south" depart="56.63" /><vehicle id="veh947" type="vType_car_14.038605069652217" route="route_north_to_east" depart="56.90" /><vehicle id="veh949" type="vType_car_20.67931515149258" route="route_south_to_north" depart="57.60" /><vehicle id="veh950" type="vType_car_32.44956021405462" route="route_north_to_south" depart="58.13" /><vehicle id="veh951" type="vType_car_8.770177449024008" route="route_east_to_north" depart="60.84" /><vehicle id="veh953" type="vType_car_27.802248556650333" route="route_north_to_south" depart="62.10" /><vehicle id="veh955" type="vType_car_19.090024886318822" route="route_north_to_west" depart="64.97" /><vehicle id="veh956" type="vType_car_21.1237659014899" route="route_north_to_south" depart="66.87" /><vehicle id="veh960" type="vType_car_26.832426424920538" route="route_north_to_south" depart="69.21" /><vehicle id="veh964" type="vType_car_25.632844312794997" route="route_north_to_west" depart="72.08" /><vehicle id="veh970" type="vType_car_20.613661080256193" route="route_north_to_west" depart="73.74" /><vehicle id="veh971" type="vType_car_11.898947313255317" route="route_north_to_east" depart="74.21" /><vehicle id="veh974" type="vType_car_29.013020512345797" route="route_north_to_south" depart="76.21" /><vehicle id="veh977" type="vType_car_18.793069499640644" route="route_north_to_east" depart="77.58" /><vehicle id="veh979" type="vType_car_20.388095336021017" route="route_north_to_west" depart="78.01" /><vehicle id="veh980" type="vType_car_20.081811539248015" route="route_east_to_west" depart="78.71" /><vehicle id="veh981" type="vType_car_16.15988552736002" route="route_north_to_east" depart="79.58" /><vehicle id="veh983" type="vType_car_18.016075696261506" route="route_north_to_east" depart="82.28" /><vehicle id="veh985" type="vType_car_34.61183291099824" route="route_north_to_south" depart="82.48" /><vehicle id="veh986" type="vType_car_18.20945806119515" route="route_north_to_east" depart="84.28" /><vehicle id="veh988" type="vType_car_11.923980433063075" route="route_north_to_south" depart="85.35" /><vehicle id="veh993" type="vType_car_7.7805165055624625" route="route_north_to_east" depart="86.92" /><vehicle id="veh997" type="vType_car_23.17517546090189" route="route_west_to_north" depart="93.99" /><vehicle id="veh996" type="vType_car_41.204548967997354" route="route_west_to_east" depart="94.09" /><vehicle id="veh1001" type="vType_car_28.243325621187914" route="route_west_to_north" depart="96.46" /><vehicle id="veh1002" type="vType_car_41.4116442794132" route="route_west_to_east" depart="96.89" /><vehicle id="veh1004" type="vType_car_47.908383521064" route="route_west_to_east" depart="98.56" /><vehicle id="veh1005" type="vType_