<?xml version='1.0' encoding='utf-8'?>
<routes><vType id="vType_car_29.889132266552682" accel="1.0" decel="5.0" sigma="0.0" length="4.5" maxSpeed="8.302536740709078" /><vType id="vType_car_23.29939662225594" accel="1.0" decel="5.0" sigma="0.0" length="4.5" maxSpeed="6.472054617293317" /><vType id="vType_car_56.3467513303924" accel="1.0" decel="5.0" sigma="0.0" length="4.5" maxSpeed="15.651875369553444" /><vType id="vType_car_27.65020902102582" accel="1.0" decel="5.0" sigma="0.0" length="4.5" maxSpeed="7.680613616951616" /><vType id="vType_car_32.19476700538581" accel="1.0" decel="5.0" sigma="0.0" length="4.5" maxSpeed="8.942990834829393" /><vType id="vType_car_24.81492049127026" accel="1.0" decel="5.0" sigma="0.0" length="4.5" maxSpeed="6.893033469797294" /><vType id="vType_car_9.720194692437053" accel="1.0" decel="5.0" sigma="0.0" length="4.5" maxSpeed="2.7000540812325147" /><vType id="vType_car_26.90509155768297" accel="1.0" decel="5.0" sigma="0.0" length="4.5" maxSpeed="7.473636543800825" /><vType id="vType_car_3.9068927197953407" accel="1.0" decel="5.0" sigma="0.0" length="4.5" maxSpeed="1.0852479777209278" /><vType id="vType_car_44.056464006512606" accel="1.0" decel="5.0" sigma="0.0" length="4.5" maxSpeed="12.237906668475723" /><vType id="vType_car_15.975615884604823" accel="1.0" decel="5.0" sigma="0.0" length="4.5" maxSpeed="4.437671079056895" /><vType id="vType_car_9.923247102950363" accel="1.0" decel="5.0" sigma="0.0" length="4.5" maxSpeed="2.756457528597323" /><vType id="vType_car_23.70852955279062" accel="1.0" decel="5.0" sigma="0.0" length="4.5" maxSpeed="6.58570265355295" /><vType id="vType_car_5.160481956255589" accel="1.0" decel="5.0" sigma="0.0" length="4.5" maxSpeed="1.433467210070997" /><vType id="vType_car_4.266424931476071" accel="1.0" decel="5.0" sigma="0.0" length="4.5" maxSpeed="1.185118036521131" /><vType id="vType_car_3.5595930049419393" accel="1.0" decel="5.0" sigma="0.0" length="4.5" maxSpeed="0.9887758347060942" /><vType id="vType_car_25.464863430291743" accel="1.0" decel="5.0" sigma="0.0" length="4.5" maxSpeed="7.073573175081039" /><vType id="vType_car_52.29770111601435" accel="1.0" decel="5.0" sigma="0.0" length="4.5" maxSpeed="14.527139198892876" /><vType id="vType_car_30.470998625621117" accel="1.0" decel="5.0" sigma="0.0" length="4.5" maxSpeed="8.464166284894755" /><vType id="vType_car_28.347092466392247" accel="1.0" decel="5.0" sigma="0.0" length="4.5" maxSpeed="7.8741923517756245" /><vType id="vType_car_6.016216632867902" accel="1.0" decel="5.0" sigma="0.0" length="4.5" maxSpeed="1.6711712869077506" /><vType id="vType_car_60.03878508741793" accel="1.0" decel="5.0" sigma="0.0" length="4.5" maxSpeed="16.677440302060536" /><vType id="vType_car_26.71047903260089" accel="1.0" decel="5.0" sigma="0.0" length="4.5" maxSpeed="7.419577509055802" /><vType id="vType_car_42.51759781729158" accel="1.0" decel="5.0" sigma="0.0" length="4.5" maxSpeed="11.81044383813655" /><vType id="vType_bus_11.99587908033971" accel="1.0" decel="5.0" sigma="0.0" length="13" maxSpeed="3.3321886334276973" /><vType id="vType_car_19.815711048655707" accel="1.0" decel="5.0" sigma="0.0" length="4.5" maxSpeed="5.504364180182141" /><vType id="vType_car_12.569109478375921" accel="1.0" decel="5.0" sigma="0.0" length="4.5" maxSpeed="3.491419299548867" /><vType id="vType_car_23.81020976588663" accel="1.0" decel="5.0" sigma="0.0" length="4.5" maxSpeed="6.61394715719073" /><vType id="vType_car_24.082079129224173" accel="1.0" decel="5.0" sigma="0.0" length="4.5" maxSpeed="6.689466424784492" /><vType id="vType_truck_18.789811621438542" accel="1.0" decel="5.0" sigma="0.0" length="8" maxSpeed="5.219392117066262" /><vType id="vType_car_3.7579623242877083" accel="1.0" decel="5.0" sigma="0.0" length="4.5" maxSpeed="1.0438784234132523" /><vType id="vType_car_41.7847725328043" accel="1.0" decel="5.0" sigma="0.0" length="4.5" maxSpeed="11.606881259112305" /><vType id="vType_car_37.69771033442247" accel="1.0" decel="5.0" sigma="0.0" length="4.5" maxSpeed="10.471586204006242" /><vType id="vType_car_12.42238590612731" accel="1.0" decel="5.0" sigma="0.0" length="4.5" maxSpeed="3.4506627517020307" /><vType id="vType_car_11.299608027468853" accel="1.0" decel="5.0" sigma="0.0" length="4.5" maxSpeed="3.138780007630237" /><vType id="vType_car_7.5159246485754165" accel="1.0" decel="5.0" sigma="0.0" length="4.5" maxSpeed="2.0877568468265046" /><vType id="vType_car_49.81958170323527" accel="1.0" decel="5.0" sigma="0.0" length="4.5" maxSpeed="13.838772695343131" /><vType id="vType_car_15.321186671249222" accel="1.0" decel="5.0" sigma="0.0" length="4.5" maxSpeed="4.2558851864581175" /><vType id="vType_car_3.860394690429351" accel="1.0" decel="5.0" sigma="0.0" length="4.5" maxSpeed="1.0723318584525974" /><vType id="vType_car_43.6776007455536" accel="1.0" decel="5.0" sigma="0.0" length="4.5" maxSpeed="12.132666873764888" /><vType id="vType_car_19.575280791473872" accel="1.0" decel="5.0" sigma="0.0" length="4.5" maxSpeed="5.437577997631631" /><vType id="vType_car_53.63530382749367" accel="1.0" decel="5.0" sigma="0.0" length="4.5" maxSpeed="14.89869550763713" /><route id="route_north_to_east" edges="north_to_center center_to_east" /><route id="route_north_to_south" edges="north_to_center center_to_south" /><route id="route_north_to_west" edges="north_to_center center_to_west" /><route id="route_east_to_west" edges="east_to_center center_to_west" /><route id="route_east_to_south" edges="east_to_center center_to_south" /><route id="route_east_to_north" edges="east_to_center center_to_north" /><route id="route_south_to_west" edges="south_to_center center_to_west" /><route id="route_south_to_north" edges="south_to_center center_to_north" /><route id="route_south_to_east" edges="south_to_center center_to_east" /><route id="route_west_to_south" edges="west_to_center center_to_south" /><route id="route_west_to_north" edges="west_to_center center_to_north" /><route id="route_west_to_east" edges="west_to_center center_to_east" /><vehicle id="veh89" type="vType_car_23.29939662225594" route="route_west_to_north" depart="0.03" /><vehicle id="veh97" type="vType_car_27.65020902102582" route="route_east_to_west" depart="0.03" /><vehicle id="veh102" type="vType_car_32.19476700538581" route="route_east_to_west" depart="0.03" /><vehicle id="veh103" type="vType_car_24.81492049127026" route="route_east_to_west" depart="0.03" /><vehicle id="veh108" type="vType_car_9.720194692437053" route="route_east_to_north" depart="0.03" /><vehicle id="veh109" type="vType_car_26.90509155768297" route="route_east_to_west" depart="0.03" /><vehicle id="veh114" type="vType_car_15.975615884604823" route="route_west_to_north" depart="3.02" /><vehicle id="veh116" type="vType_car_23.70852955279062" route="route_east_to_west" depart="3.02" /><vehicle id="veh125" type="vType_car_25.464863430291743" route="route_east_to_west" depart="9.59" /><vehicle id="veh127" type="vType_car_52.29770111601435" route="route_west_to_east" depart="11.20" /><vehicle id="veh128" type="vType_car_30.470998625621117" route="route_east_to_west" depart="14.79" /><vehicle id="veh129" type="vType_car_28.347092466392247" route="route_east_to_west" depart="15.05" /><vehicle id="veh131" type="vType_car_60.03878508741793" route="route_east_to_west" depart="26.55" /><vehicle id="veh132" type="vType_car_26.71047903260089" route="route_south_to_west" depart="34.10" /><vehicle id="veh133" type="vType_car_42.51759781729158" route="route_east_to_west" depart="36.75" /><vehicle id="veh134" type="vType_bus_11.99587908033971" route="route_north_to_west" depart="42.01" /><vehicle id="veh135" type="vType_car_19.815711048655707" route="route_west_to_east" depart="47.21" /><vehicle id="veh138" type="vType_car_12.569109478375921" route="route_north_to_east" depart="49.69" /><vehicle id="veh139" type="vType_car_23.81020976588663" route="route_west_to_east" depart="54.72" /><vehicle id="veh140" type="vType_car_24.082079129224173" route="route_east_to_west" depart="58.81" /><vehicle id="veh143" type="vType_car_41.7847725328043" route="route_west_to_east" depart="81.48" /><vehicle id="veh144" type="vType_car_37.69771033442247" route="route_west_to_east" depart="83.15" /><vehicle id="veh145" type="vType_car_12.42238590612731" route="route_south_to_east" depart="84.36" /><vehicle id="veh146" type="vType_car_11.299608027468853" route="route_north_to_south" depart="87.24" /><vehicle id="veh150" type="vType_car_49.81958170323527" route="route_east_to_west" depart="91.77" /><vehicle id="veh152" type="vType_car_15.321186671249222" route="route_south_to_east" depart="92.64" /><vehicle id="veh155" type="vType_car_43.6776007455536" route="route_south_to_north" depart="106.96" /><vehicle id="veh156" type="vType_car_19.575280791473872" route="route_north_to_west" depart="108.00" /><vehicle id="veh157" type="vType_car_53.63530382749367" route="route_north_to_south" depart="114.84" /></routes>