<?xml version='1.0' encoding='utf-8'?>
<routes><vType id="vType_car_16.47678028205141" accel="1.0" decel="5.0" sigma="0.0" length="4.5" maxSpeed="4.576883411680948" /><vType id="vType_car_63.937905726680356" accel="1.0" decel="5.0" sigma="0.0" length="4.5" maxSpeed="17.76052936852232" /><vType id="vType_car_19.03508795026018" accel="1.0" decel="5.0" sigma="0.0" length="4.5" maxSpeed="5.287524430627828" /><vType id="vType_car_21.92765129677036" accel="1.0" decel="5.0" sigma="0.0" length="4.5" maxSpeed="6.091014249102877" /><vType id="vType_car_104.7212985680575" accel="1.0" decel="5.0" sigma="0.0" length="4.5" maxSpeed="29.089249602238194" /><vType id="vType_car_44.073376483612755" accel="1.0" decel="5.0" sigma="0.0" length="4.5" maxSpeed="12.24260457878132" /><route id="route_north_to_east" edges="north_to_center center_to_east" /><route id="route_north_to_south" edges="north_to_center center_to_south" /><route id="route_north_to_west" edges="north_to_center center_to_west" /><route id="route_east_to_west" edges="east_to_center center_to_west" /><route id="route_east_to_south" edges="east_to_center center_to_south" /><route id="route_east_to_north" edges="east_to_center center_to_north" /><route id="route_south_to_west" edges="south_to_center center_to_west" /><route id="route_south_to_north" edges="south_to_center center_to_north" /><route id="route_south_to_east" edges="south_to_center center_to_east" /><route id="route_west_to_south" edges="west_to_center center_to_south" /><route id="route_west_to_north" edges="west_to_center center_to_north" /><route id="route_west_to_east" edges="west_to_center center_to_east" /><vehicle id="veh117" type="vType_car_16.47678028205141" route="route_south_to_north" depart="0.04" /><vehicle id="veh121" type="vType_car_63.937905726680356" route="route_east_to_west" depart="0.04" /><vehicle id="veh123" type="vType_car_19.03508795026018" route="route_north_to_west" depart="10.72" /><vehicle id="veh128" type="vType_car_21.92765129677036" route="route_north_to_west" depart="15.73" /></routes>