<?xml version='1.0' encoding='utf-8'?>
<routes><vType id="vType_car_44.80787213089731" accel="1.0" decel="5.0" sigma="0.0" length="4.5" maxSpeed="12.446631147471475" /><vType id="vType_car_23.028553322029154" accel="1.0" decel="5.0" sigma="0.0" length="4.5" maxSpeed="6.396820367230321" /><vType id="vType_car_14.830518594611664" accel="1.0" decel="5.0" sigma="0.0" length="4.5" maxSpeed="4.11958849850324" /><vType id="vType_car_15.709526358699042" accel="1.0" decel="5.0" sigma="0.0" length="4.5" maxSpeed="4.363757321860845" /><vType id="vType_car_18.751984615283998" accel="1.0" decel="5.0" sigma="0.0" length="4.5" maxSpeed="5.208884615356666" /><vType id="vType_car_16.073426992636733" accel="1.0" decel="5.0" sigma="0.0" length="4.5" maxSpeed="4.464840831287981" /><vType id="vType_car_18.719080470637095" accel="1.0" decel="5.0" sigma="0.0" length="4.5" maxSpeed="5.199744575176971" /><vType id="vType_car_20.305502775438953" accel="1.0" decel="5.0" sigma="0.0" length="4.5" maxSpeed="5.640417437621931" /><vType id="vType_car_20.480269601316223" accel="1.0" decel="5.0" sigma="0.0" length="4.5" maxSpeed="5.688963778143395" /><vType id="vType_car_22.89839852318447" accel="1.0" decel="5.0" sigma="0.0" length="4.5" maxSpeed="6.36066625644013" /><vType id="vType_car_10.2075580122161" accel="1.0" decel="5.0" sigma="0.0" length="4.5" maxSpeed="2.835432781171139" /><vType id="vType_car_15.874023617231797" accel="1.0" decel="5.0" sigma="0.0" length="4.5" maxSpeed="4.40945100478661" /><vType id="vType_bus_6.6686699883232325" accel="1.0" decel="5.0" sigma="0.0" length="13" maxSpeed="1.8524083300897867" /><vType id="vType_car_8.330846664570482" accel="1.0" decel="5.0" sigma="0.0" length="4.5" maxSpeed="2.3141240734918003" /><vType id="vType_car_4.554474169886404" accel="1.0" decel="5.0" sigma="0.0" length="4.5" maxSpeed="1.2651317138573346" /><vType id="vType_car_16.074158293392102" accel="1.0" decel="5.0" sigma="0.0" length="4.5" maxSpeed="4.465043970386695" /><vType id="vType_car_7.389770664319849" accel="1.0" decel="5.0" sigma="0.0" length="4.5" maxSpeed="2.0527140734221803" /><vType id="vType_car_4.673829782961758" accel="1.0" decel="5.0" sigma="0.0" length="4.5" maxSpeed="1.2982860508227105" /><vType id="vType_car_7.4329379549382235" accel="1.0" decel="5.0" sigma="0.0" length="4.5" maxSpeed="2.06470498748284" /><vType id="vType_car_40.348239243766244" accel="1.0" decel="5.0" sigma="0.0" length="4.5" maxSpeed="11.207844234379513" /><vType id="vType_car_9.801269025963162" accel="1.0" decel="5.0" sigma="0.0" length="4.5" maxSpeed="2.7225747294342115" /><vType id="vType_car_7.601193284641252" accel="1.0" decel="5.0" sigma="0.0" length="4.5" maxSpeed="2.1114425790670146" /><vType id="vType_car_6.966582793160119" accel="1.0" decel="5.0" sigma="0.0" length="4.5" maxSpeed="1.9351618869889218" /><vType id="vType_car_20.71381326549805" accel="1.0" decel="5.0" sigma="0.0" length="4.5" maxSpeed="5.753837018193903" /><vType id="vType_car_32.09797296060514" accel="1.0" decel="5.0" sigma="0.0" length="4.5" maxSpeed="8.916103600168094" /><vType id="vType_car_23.460944985841437" accel="1.0" decel="5.0" sigma="0.0" length="4.5" maxSpeed="6.5169291627337325" /><vType id="vType_bus_3.7092272761079075" accel="1.0" decel="5.0" sigma="0.0" length="13" maxSpeed="1.0303409100299743" /><vType id="vType_car_5.534874393131249" accel="1.0" decel="5.0" sigma="0.0" length="4.5" maxSpeed="1.5374651092031246" /><vType id="vType_car_28.36822515488135" accel="1.0" decel="5.0" sigma="0.0" length="4.5" maxSpeed="7.880062543022597" /><vType id="vType_bus_5.517775494495428" accel="1.0" decel="5.0" sigma="0.0" length="13" maxSpeed="1.5327154151376188" /><vType id="vType_car_4.44242120216324" accel="1.0" decel="5.0" sigma="0.0" length="4.5" maxSpeed="1.234005889489789" /><vType id="vType_car_28.545557578559634" accel="1.0" decel="5.0" sigma="0.0" length="4.5" maxSpeed="7.929321549599898" /><vType id="vType_car_5.442642807156342" accel="1.0" decel="5.0" sigma="0.0" length="4.5" maxSpeed="1.511845224210095" /><vType id="vType_car_4.688678572820718" accel="1.0" decel="5.0" sigma="0.0" length="4.5" maxSpeed="1.3024107146724218" /><vType id="vType_car_3.4832913965800594" accel="1.0" decel="5.0" sigma="0.0" length="4.5" maxSpeed="0.9675809434944609" /><vType id="vType_car_39.294411478075446" accel="1.0" decel="5.0" sigma="0.0" length="4.5" maxSpeed="10.915114299465401" /><vType id="vType_car_3.6138886482994588" accel="1.0" decel="5.0" sigma="0.0" length="4.5" maxSpeed="1.0038579578609608" /><vType id="vType_car_4.261613876983674" accel="1.0" decel="5.0" sigma="0.0" length="4.5" maxSpeed="1.1837816324954649" /><vType id="vType_car_3.993086658805115" accel="1.0" decel="5.0" sigma="0.0" length="4.5" maxSpeed="1.1091907385569764" /><vType id="vType_car_4.042467876976156" accel="1.0" decel="5.0" sigma="0.0" length="4.5" maxSpeed="1.1229077436044876" /><vType id="vType_car_3.6827257307459713" accel="1.0" decel="5.0" sigma="0.0" length="4.5" maxSpeed="1.0229793696516587" /><vType id="vType_car_61.87766768319707" accel="1.0" decel="5.0" sigma="0.0" length="4.5" maxSpeed="17.188241023110297" /><vType id="vType_car_29.517436894332704" accel="1.0" decel="5.0" sigma="0.0" length="4.5" maxSpeed="8.19928802620353" /><vType id="vType_car_4.720115289406581" accel="1.0" decel="5.0" sigma="0.0" length="4.5" maxSpeed="1.3111431359462726" /><vType id="vType_car_5.082952226352133" accel="1.0" decel="5.0" sigma="0.0" length="4.5" maxSpeed="1.4119311739867035" /><vType id="vType_car_6.838539690740149" accel="1.0" decel="5.0" sigma="0.0" length="4.5" maxSpeed="1.89959435853893" /><vType id="vType_car_60.054898990732134" accel="1.0" decel="5.0" sigma="0.0" length="4.5" maxSpeed="16.68191638631448" /><vType id="vType_car_11.362798500096625" accel="1.0" decel="5.0" sigma="0.0" length="4.5" maxSpeed="3.156332916693507" /><vType id="vType_car_10.65274207293138" accel="1.0" decel="5.0" sigma="0.0" length="4.5" maxSpeed="2.9590950202587165" /><vType id="vType_car_4.337937814354427" accel="1.0" decel="5.0" sigma="0.0" length="4.5" maxSpeed="1.204982726209563" /><vType id="vType_car_11.710959010172141" accel="1.0" decel="5.0" sigma="0.0" length="4.5" maxSpeed="3.253044169492261" /><vType id="vType_car_62.87908087094921" accel="1.0" decel="5.0" sigma="0.0" length="4.5" maxSpeed="17.466411353041448" /><vType id="vType_car_4.2823178441284036" accel="1.0" decel="5.0" sigma="0.0" length="4.5" maxSpeed="1.189532734480112" /><vType id="vType_car_8.52127766513043" accel="1.0" decel="5.0" sigma="0.0" length="4.5" maxSpeed="2.367021573647342" /><vType id="vType_car_17.39412029107033" accel="1.0" decel="5.0" sigma="0.0" length="4.5" maxSpeed="4.831700080852869" /><route id="route_north_to_east" edges="north_to_center center_to_east" /><route id="route_north_to_south" edges="north_to_center center_to_south" /><route id="route_north_to_west" edges="north_to_center center_to_west" /><route id="route_east_to_west" edges="east_to_center center_to_west" /><route id="route_east_to_south" edges="east_to_center center_to_south" /><route id="route_east_to_north" edges="east_to_center center_to_north" /><route id="route_south_to_west" edges="south_to_center center_to_west" /><route id="route_south_to_north" edges="south_to_center center_to_north" /><route id="route_south_to_east" edges="south_to_center center_to_east" /><route id="route_west_to_south" edges="west_to_center center_to_south" /><route id="route_west_to_north" edges="west_to_center center_to_north" /><route id="route_west_to_east" edges="west_to_center center_to_east" /><vehicle id="veh169" type="vType_car_44.80787213089731" route="route_south_to_west" depart="0.04" /><vehicle id="veh198" type="vType_car_23.028553322029154" route="route_north_to_south" depart="0.04" /><vehicle id="veh220" type="vType_car_14.830518594611664" route="route_north_to_east" depart="0.04" /><vehicle id="veh229" type="vType_car_15.709526358699042" route="route_south_to_north" depart="0.04" /><vehicle id="veh225" type="vType_car_18.751984615283998" route="route_south_to_north" depart="0.04" /><vehicle id="veh361" type="vType_car_16.073426992636733" route="route_north_to_west" depart="0.04" /><vehicle id="veh377" type="vType_car_18.719080470637095" route="route_west_to_east" depart="0.04" /><vehicle id="veh365" type="vType_car_20.305502775438953" route="route_west_to_east" depart="0.04" /><vehicle id="veh202" type="vType_car_20.480269601316223" route="route_north_to_south" depart="0.04" /><vehicle id="veh392" type="vType_car_22.89839852318447" route="route_east_to_west" depart="0.04" /><vehicle id="veh400" type="vType_car_15.874023617231797" route="route_north_to_west" depart="0.04" /><vehicle id="veh401" type="vType_car_16.074158293392102" route="route_south_to_east" depart="0.04" /><vehicle id="veh408" type="vType_car_40.348239243766244" route="route_south_to_west" depart="4.23" /><vehicle id="veh410" type="vType_car_9.801269025963162" route="route_east_to_north" depart="7.16" /><vehicle id="veh415" type="vType_car_20.71381326549805" route="route_south_to_north" depart="12.37" /><vehicle id="veh416" type="vType_car_32.09797296060514" route="route_south_to_north" depart="13.67" /><vehicle id="veh417" type="vType_car_23.460944985841437" route="route_south_to_north" depart="16.64" /><vehicle id="veh422" type="vType_car_28.36822515488135" route="route_south_to_north" depart="19.64" /><vehicle id="veh425" type="vType_car_28.545557578559634" route="route_west_to_east" depart="24.38" /><vehicle id="veh431" type="vType_car_39.294411478075446" route="route_east_to_west" depart="29.91" /><vehicle id="veh438" type="vType_car_61.87766768319707" route="route_west_to_east" depart="39.72" /><vehicle id="veh445" type="vType_car_60.054898990732134" route="route_west_to_east" depart="44.71" /><vehicle id="veh456" type="vType_car_62.87908087094921" route="route_west_to_east" depart="51.44" /></routes>