<?xml version='1.0' encoding='utf-8'?>
<routes><vType id="vType_car_17.28149838182353" accel="1.0" decel="5.0" sigma="0.0" length="4.5" maxSpeed="4.800416217173202" /><vType id="vType_car_28.912523490231308" accel="1.0" decel="5.0" sigma="0.0" length="4.5" maxSpeed="8.031256525064252" /><vType id="vType_car_18.89124152817873" accel="1.0" decel="5.0" sigma="0.0" length="4.5" maxSpeed="5.247567091160758" /><vType id="vType_car_4.460194299741755" accel="1.0" decel="5.0" sigma="0.0" length="4.5" maxSpeed="1.2389428610393765" /><vType id="vType_car_20.41298998140609" accel="1.0" decel="5.0" sigma="0.0" length="4.5" maxSpeed="5.670274994835024" /><vType id="vType_car_3.602174812493953" accel="1.0" decel="5.0" sigma="0.0" length="4.5" maxSpeed="1.0006041145816535" /><vType id="vType_car_28.104980295557247" accel="1.0" decel="5.0" sigma="0.0" length="4.5" maxSpeed="7.806938970988124" /><vType id="vType_car_1.867323894056272" accel="1.0" decel="5.0" sigma="0.0" length="4.5" maxSpeed="0.5187010816822978" /><vType id="vType_car_14.677553095294726" accel="1.0" decel="5.0" sigma="0.0" length="4.5" maxSpeed="4.077098082026313" /><vType id="vType_car_4.196268860670798" accel="1.0" decel="5.0" sigma="0.0" length="4.5" maxSpeed="1.1656302390752216" /><vType id="vType_car_30.720618290358168" accel="1.0" decel="5.0" sigma="0.0" length="4.5" maxSpeed="8.533505080655047" /><vType id="vType_car_11.496399062156929" accel="1.0" decel="5.0" sigma="0.0" length="4.5" maxSpeed="3.1934441839324803" /><vType id="vType_car_26.790051825114507" accel="1.0" decel="5.0" sigma="0.0" length="4.5" maxSpeed="7.441681062531807" /><vType id="vType_car_4.56189534742773" accel="1.0" decel="5.0" sigma="0.0" length="4.5" maxSpeed="1.2671931520632582" /><vType id="vType_car_17.243376795727805" accel="1.0" decel="5.0" sigma="0.0" length="4.5" maxSpeed="4.789826887702168" /><vType id="vType_car_39.16073767430462" accel="1.0" decel="5.0" sigma="0.0" length="4.5" maxSpeed="10.877982687306838" /><vType id="vType_car_10.64233048458568" accel="1.0" decel="5.0" sigma="0.0" length="4.5" maxSpeed="2.956202912384911" /><vType id="vType_car_20.66568770669587" accel="1.0" decel="5.0" sigma="0.0" length="4.5" maxSpeed="5.740468807415519" /><vType id="vType_car_26.318007085252322" accel="1.0" decel="5.0" sigma="0.0" length="4.5" maxSpeed="7.310557523681201" /><vType id="vType_car_26.416616773092937" accel="1.0" decel="5.0" sigma="0.0" length="4.5" maxSpeed="7.337949103636927" /><vType id="vType_car_24.439797841378773" accel="1.0" decel="5.0" sigma="0.0" length="4.5" maxSpeed="6.788832733716326" /><vType id="vType_car_22.686764215282043" accel="1.0" decel="5.0" sigma="0.0" length="4.5" maxSpeed="6.301878948689456" /><vType id="vType_car_4.844442409049991" accel="1.0" decel="5.0" sigma="0.0" length="4.5" maxSpeed="1.345678446958331" /><vType id="vType_car_3.8098594551415212" accel="1.0" decel="5.0" sigma="0.0" length="4.5" maxSpeed="1.058294293094867" /><vType id="vType_car_14.707894572852696" accel="1.0" decel="5.0" sigma="0.0" length="4.5" maxSpeed="4.08552627023686" /><vType id="vType_car_6.206216293735158" accel="1.0" decel="5.0" sigma="0.0" length="4.5" maxSpeed="1.7239489704819884" /><vType id="vType_car_4.979487579114389" accel="1.0" decel="5.0" sigma="0.0" length="4.5" maxSpeed="1.3831909941984415" /><vType id="vType_car_3.4102307055071983" accel="1.0" decel="5.0" sigma="0.0" length="4.5" maxSpeed="0.9472863070853328" /><route id="route_north_to_east" edges="north_to_center center_to_east" /><route id="route_north_to_south" edges="north_to_center center_to_south" /><route id="route_north_to_west" edges="north_to_center center_to_west" /><route id="route_east_to_west" edges="east_to_center center_to_west" /><route id="route_east_to_south" edges="east_to_center center_to_south" /><route id="route_east_to_north" edges="east_to_center center_to_north" /><route id="route_south_to_west" edges="south_to_center center_to_west" /><route id="route_south_to_north" edges="south_to_center center_to_north" /><route id="route_south_to_east" edges="south_to_center center_to_east" /><route id="route_west_to_south" edges="west_to_center center_to_south" /><route id="route_west_to_north" edges="west_to_center center_to_north" /><route id="route_west_to_east" edges="west_to_center center_to_east" /><vehicle id="veh361" type="vType_car_17.28149838182353" route="route_west_to_north" depart="0.03" /><vehicle id="veh376" type="vType_car_28.912523490231308" route="route_east_to_west" depart="0.03" /><vehicle id="veh383" type="vType_car_18.89124152817873" route="route_west_to_north" depart="0.03" /><vehicle id="veh386" type="vType_car_20.41298998140609" route="route_west_to_south" depart="0.03" /><vehicle id="veh390" type="vType_car_28.104980295557247" route="route_south_to_north" depart="3.70" /><vehicle id="veh392" type="vType_car_14.677553095294726" route="route_north_to_south" depart="9.50" /><vehicle id="veh395" type="vType_car_30.720618290358168" route="route_east_to_west" depart="23.67" /><vehicle id="veh396" type="vType_car_11.496399062156929" route="route_north_to_east" depart="23.97" /><vehicle id="veh397" type="vType_car_26.790051825114507" route="route_east_to_south" depart="26.01" /><vehicle id="veh400" type="vType_car_17.243376795727805" route="route_west_to_north" depart="27.27" /><vehicle id="veh402" type="vType_car_39.16073767430462" route="route_east_to_west" depart="33.74" /><vehicle id="veh404" type="vType_car_20.66568770669587" route="route_north_to_east" depart="44.01" /><vehicle id="veh405" type="vType_car_26.318007085252322" route="route_north_to_south" depart="45.54" /><vehicle id="veh411" type="vType_car_26.416616773092937" route="route_north_to_south" depart="48.01" /><vehicle id="veh413" type="vType_car_24.439797841378773" route="route_north_to_south" depart="48.14" /><vehicle id="veh416" type="vType_car_22.686764215282043" route="route_north_to_south" depart="50.64" /></routes>