<?xml version='1.0' encoding='utf-8'?>
<routes><vType id="vType_car_21.96666304633145" accel="1.0" decel="5.0" sigma="0.0" length="4.5" maxSpeed="6.101850846203181" /><vType id="vType_car_19.322705906975337" accel="1.0" decel="5.0" sigma="0.0" length="4.5" maxSpeed="5.367418307493149" /><vType id="vType_car_12.769485321842367" accel="1.0" decel="5.0" sigma="0.0" length="4.5" maxSpeed="3.5470792560673243" /><vType id="vType_car_21.133750700072916" accel="1.0" decel="5.0" sigma="0.0" length="4.5" maxSpeed="5.87048630557581" /><vType id="vType_car_21.637491362267532" accel="1.0" decel="5.0" sigma="0.0" length="4.5" maxSpeed="6.010414267296537" /><vType id="vType_car_12.569340690353348" accel="1.0" decel="5.0" sigma="0.0" length="4.5" maxSpeed="3.491483525098152" /><vType id="vType_car_49.882581277842775" accel="1.0" decel="5.0" sigma="0.0" length="4.5" maxSpeed="13.856272577178547" /><vType id="vType_car_25.4545842974708" accel="1.0" decel="5.0" sigma="0.0" length="4.5" maxSpeed="7.070717860408555" /><vType id="vType_car_73.05159236680205" accel="1.0" decel="5.0" sigma="0.0" length="4.5" maxSpeed="20.29210899077835" /><vType id="vType_car_3.6915288974716844" accel="1.0" decel="5.0" sigma="0.0" length="4.5" maxSpeed="1.0254246937421345" /><vType id="vType_car_17.417370913483094" accel="1.0" decel="5.0" sigma="0.0" length="4.5" maxSpeed="4.838158587078637" /><vType id="vType_car_17.890816287926288" accel="1.0" decel="5.0" sigma="0.0" length="4.5" maxSpeed="4.969671191090636" /><vType id="vType_car_27.94947614026747" accel="1.0" decel="5.0" sigma="0.0" length="4.5" maxSpeed="7.76374337229652" /><vType id="vType_car_13.167066766017134" accel="1.0" decel="5.0" sigma="0.0" length="4.5" maxSpeed="3.6575185461158704" /><vType id="vType_car_6.287380329018769" accel="1.0" decel="5.0" sigma="0.0" length="4.5" maxSpeed="1.746494535838547" /><vType id="vType_car_35.935248607802485" accel="1.0" decel="5.0" sigma="0.0" length="4.5" maxSpeed="9.982013502167357" /><vType id="vType_car_16.555667614176333" accel="1.0" decel="5.0" sigma="0.0" length="4.5" maxSpeed="4.598796559493426" /><vType id="vType_bus_57.43166276386332" accel="1.0" decel="5.0" sigma="0.0" length="13" maxSpeed="15.9532396566287" /><vType id="vType_bus_27.018101423394246" accel="1.0" decel="5.0" sigma="0.0" length="13" maxSpeed="7.505028173165068" /><vType id="vType_car_9.33373068952156" accel="1.0" decel="5.0" sigma="0.0" length="4.5" maxSpeed="2.5927029693115444" /><vType id="vType_car_27.138129625230057" accel="1.0" decel="5.0" sigma="0.0" length="4.5" maxSpeed="7.538369340341682" /><vType id="vType_car_3.5237321294047885" accel="1.0" decel="5.0" sigma="0.0" length="4.5" maxSpeed="0.978814480390219" /><vType id="vType_car_20.874534909541385" accel="1.0" decel="5.0" sigma="0.0" length="4.5" maxSpeed="5.798481919317052" /><vType id="vType_car_27.02764087185215" accel="1.0" decel="5.0" sigma="0.0" length="4.5" maxSpeed="7.50767801995893" /><vType id="vType_car_35.26440172206202" accel="1.0" decel="5.0" sigma="0.0" length="4.5" maxSpeed="9.795667145017227" /><vType id="vType_car_19.965104496169666" accel="1.0" decel="5.0" sigma="0.0" length="4.5" maxSpeed="5.5458623600471295" /><vType id="vType_car_36.118636273749715" accel="1.0" decel="5.0" sigma="0.0" length="4.5" maxSpeed="10.032954520486031" /><vType id="vType_car_16.385018818207826" accel="1.0" decel="5.0" sigma="0.0" length="4.5" maxSpeed="4.55139411616884" /><vType id="vType_car_33.24986628135661" accel="1.0" decel="5.0" sigma="0.0" length="4.5" maxSpeed="9.236073967043502" /><vType id="vType_car_4.966418040443318" accel="1.0" decel="5.0" sigma="0.0" length="4.5" maxSpeed="1.3795605667898105" /><vType id="vType_car_30.105783922853597" accel="1.0" decel="5.0" sigma="0.0" length="4.5" maxSpeed="8.362717756348221" /><vType id="vType_car_3.3725879161382357" accel="1.0" decel="5.0" sigma="0.0" length="4.5" maxSpeed="0.9368299767050654" /><vType id="vType_truck_32.67132540137706" accel="1.0" decel="5.0" sigma="0.0" length="8" maxSpeed="9.075368167049183" /><vType id="vType_car_28.642747809941145" accel="1.0" decel="5.0" sigma="0.0" length="4.5" maxSpeed="7.956318836094763" /><vType id="vType_car_9.709115316165635" accel="1.0" decel="5.0" sigma="0.0" length="4.5" maxSpeed="2.6969764767126763" /><vType id="vType_car_13.968209124179992" accel="1.0" decel="5.0" sigma="0.0" length="4.5" maxSpeed="3.8800580900499977" /><vType id="vType_car_38.63555321777506" accel="1.0" decel="5.0" sigma="0.0" length="4.5" maxSpeed="10.732098116048627" /><vType id="vType_car_3.69880230095175" accel="1.0" decel="5.0" sigma="0.0" length="4.5" maxSpeed="1.0274450835977083" /><vType id="vType_car_29.37718121668006" accel="1.0" decel="5.0" sigma="0.0" length="4.5" maxSpeed="8.160328115744461" /><vType id="vType_car_4.144143621279684" accel="1.0" decel="5.0" sigma="0.0" length="4.5" maxSpeed="1.1511510059110235" /><vType id="vType_car_33.19480301111806" accel="1.0" decel="5.0" sigma="0.0" length="4.5" maxSpeed="9.220778614199462" /><vType id="vType_car_25.190150766184775" accel="1.0" decel="5.0" sigma="0.0" length="4.5" maxSpeed="6.997264101717993" /><vType id="vType_car_28.901205496818896" accel="1.0" decel="5.0" sigma="0.0" length="4.5" maxSpeed="8.028112638005249" /><vType id="vType_car_32.46495130176893" accel="1.0" decel="5.0" sigma="0.0" length="4.5" maxSpeed="9.018042028269146" /><vType id="vType_car_36.093008075932445" accel="1.0" decel="5.0" sigma="0.0" length="4.5" maxSpeed="10.025835576647902" /><vType id="vType_car_6.877339013247284" accel="1.0" decel="5.0" sigma="0.0" length="4.5" maxSpeed="1.9103719481242456" /><vType id="vType_car_21.86124923281736" accel="1.0" decel="5.0" sigma="0.0" length="4.5" maxSpeed="6.072569231338155" /><vType id="vType_car_31.162952568453786" accel="1.0" decel="5.0" sigma="0.0" length="4.5" maxSpeed="8.656375713459385" /><vType id="vType_car_7.8793045758491935" accel="1.0" decel="5.0" sigma="0.0" length="4.5" maxSpeed="2.188695715513665" /><vType id="vType_car_17.2701041391738" accel="1.0" decel="5.0" sigma="0.0" length="4.5" maxSpeed="4.7972511497705" /><vType id="vType_car_39.779702529307215" accel="1.0" decel="5.0" sigma="0.0" length="4.5" maxSpeed="11.049917369252004" /><vType id="vType_car_21.444479160461444" accel="1.0" decel="5.0" sigma="0.0" length="4.5" maxSpeed="5.956799766794846" /><vType id="vType_car_41.96760879694133" accel="1.0" decel="5.0" sigma="0.0" length="4.5" maxSpeed="11.65766911026148" /><vType id="vType_car_27.08753873757135" accel="1.0" decel="5.0" sigma="0.0" length="4.5" maxSpeed="7.524316315992041" /><vType id="vType_car_48.03333708617188" accel="1.0" decel="5.0" sigma="0.0" length="4.5" maxSpeed="13.342593635047745" /><vType id="vType_car_10.904639423562866" accel="1.0" decel="5.0" sigma="0.0" length="4.5" maxSpeed="3.0290665065452407" /><vType id="vType_car_24.49713540717233" accel="1.0" decel="5.0" sigma="0.0" length="4.5" maxSpeed="6.804759835325647" /><vType id="vType_car_51.2985818439547" accel="1.0" decel="5.0" sigma="0.0" length="4.5" maxSpeed="14.249606067765194" /><vType id="vType_car_4.060546364148397" accel="1.0" decel="5.0" sigma="0.0" length="4.5" maxSpeed="1.127929545596777" /><vType id="vType_car_40.742291824273885" accel="1.0" decel="5.0" sigma="0.0" length="4.5" maxSpeed="11.317303284520523" /><vType id="vType_car_4.065082646586616" accel="1.0" decel="5.0" sigma="0.0" length="4.5" maxSpeed="1.1291896240518378" /><vType id="vType_car_46.044139908642826" accel="1.0" decel="5.0" sigma="0.0" length="4.5" maxSpeed="12.790038863511896" /><vType id="vType_car_10.222342560045664" accel="1.0" decel="5.0" sigma="0.0" length="4.5" maxSpeed="2.8395396000126847" /><vType id="vType_car_56.59066667800494" accel="1.0" decel="5.0" sigma="0.0" length="4.5" maxSpeed="15.719629632779151" /><vType id="vType_car_39.427281849385786" accel="1.0" decel="5.0" sigma="0.0" length="4.5" maxSpeed="10.952022735940496" /><vType id="vType_car_43.38878749073998" accel="1.0" decel="5.0" sigma="0.0" length="4.5" maxSpeed="12.052440969649993" /><vType id="vType_car_14.664864451360085" accel="1.0" decel="5.0" sigma="0.0" length="4.5" maxSpeed="4.0735734587111345" /><vType id="vType_car_3.938927587466173" accel="1.0" decel="5.0" sigma="0.0" length="4.5" maxSpeed="1.0941465520739369" /><vType id="vType_bus_3.8181831116056437" accel="1.0" decel="5.0" sigma="0.0" length="13" maxSpeed="1.0606064198904566" /><route id="route_north_to_east" edges="north_to_center center_to_east" /><route id="route_north_to_south" edges="north_to_center center_to_south" /><route id="route_north_to_west" edges="north_to_center center_to_west" /><route id="route_east_to_west" edges="east_to_center center_to_west" /><route id="route_east_to_south" edges="east_to_center center_to_south" /><route id="route_east_to_north" edges="east_to_center center_to_north" /><route id="route_south_to_west" edges="south_to_center center_to_west" /><route id="route_south_to_north" edges="south_to_center center_to_north" /><route id="route_south_to_east" edges="south_to_center center_to_east" /><route id="route_west_to_south" edges="west_to_center center_to_south" /><route id="route_west_to_north" edges="west_to_center center_to_north" /><route id="route_west_to_east" edges="west_to_center center_to_east" /><vehicle id="veh269" type="vType_car_12.769485321842367" route="route_west_to_north" depart="0.04" /><vehicle id="veh290" type="vType_car_21.133750700072916" route="route_west_to_east" depart="0.04" /><vehicle id="veh291" type="vType_car_21.637491362267532" route="route_west_to_east" depart="0.04" /><vehicle id="veh293" type="vType_car_12.569340690353348" route="route_west_to_north" depart="0.04" /><vehicle id="veh302" type="vType_car_49.882581277842775" route="route_north_to_south" depart="0.04" /><vehicle id="veh305" type="vType_car_25.4545842974708" route="route_north_to_west" depart="0.04" /><vehicle id="veh306" type="vType_car_17.417370913483094" route="route_north_to_west" depart="0.04" /><vehicle id="veh308" type="vType_car_17.890816287926288" route="route_west_to_east" depart="0.04" /><vehicle id="veh303" type="vType_car_27.94947614026747" route="route_south_to_north" depart="0.04" /><vehicle id="veh311" type="vType_car_35.935248607802485" route="route_south_to_north" depart="1.36" /><vehicle id="veh312" type="vType_car_16.555667614176333" route="route_north_to_west" depart="1.36" /><vehicle id="veh307" type="vType_bus_57.43166276386332" route="route_north_to_south" depart="1.72" /><vehicle id="veh314" type="vType_bus_27.018101423394246" route="route_south_to_north" depart="3.15" /><vehicle id="veh321" type="vType_car_20.874534909541385" route="route_south_to_east" depart="4.68" /><vehicle id="veh322" type="vType_car_27.02764087185215" route="route_north_to_south" depart="4.93" /><vehicle id="veh323" type="vType_car_35.26440172206202" route="route_south_to_north" depart="5.44" /><vehicle id="veh325" type="vType_car_19.965104496169666" route="route_west_to_east" depart="5.58" /><vehicle id="veh326" type="vType_car_36.118636273749715" route="route_south_to_north" depart="7.44" /><vehicle id="veh327" type="vType_car_16.385018818207826" route="route_west_to_north" depart="7.90" /><vehicle id="veh329" type="vType_car_33.24986628135661" route="route_south_to_north" depart="8.65" /><vehicle id="veh332" type="vType_car_30.105783922853597" route="route_south_to_north" depart="10.44" /><vehicle id="veh336" type="vType_car_28.642747809941145" route="route_south_to_north" depart="16.41" /><vehicle id="veh338" type="vType_car_9.709115316165635" route="route_east_to_north" depart="17.06" /><vehicle id="veh340" type="vType_car_13.968209124179992" route="route_north_to_east" depart="19.31" /><vehicle id="veh346" type="vType_car_38.63555321777506" route="route_south_to_west" depart="22.31" /><vehicle id="veh352" type="vType_car_29.37718121668006" route="route_west_to_east" depart="28.50" /><vehicle id="veh362" type="vType_car_33.19480301111806" route="route_west_to_south" depart="33.50" /><vehicle id="veh366" type="vType_car_25.190150766184775" route="route_west_to_north" depart="34.51" /><vehicle id="veh369" type="vType_car_28.901205496818896" route="route_west_to_east" depart="35.08" /><vehicle id="veh373" type="vType_car_36.093008075932445" route="route_west_to_east" depart="36.79" /><vehicle id="veh376" type="vType_car_21.86124923281736" route="route_west_to_south" depart="38.22" /><vehicle id="veh377" type="vType_car_31.162952568453786" route="route_west_to_north" depart="38.73" /><vehicle id="veh380" type="vType_car_17.2701041391738" route="route_north_to_west" depart="39.01" /><vehicle id="veh381" type="vType_car_39.779702529307215" route="route_west_to_east" depart="39.08" /><vehicle id="veh384" type="vType_car_21.444479160461444" route="route_west_to_east" depart="40.66" /><vehicle id="veh385" type="vType_car_41.96760879694133" route="route_west_to_east" depart="40.69" /><vehicle id="veh386" type="vType_car_27.08753873757135" route="route_west_to_north" depart="40.69" /><vehicle id="veh387" type="vType_car_48.03333708617188" route="route_west_to_east" depart="42.37" /><vehicle id="veh390" type="vType_car_24.49713540717233" route="route_west_to_east" depart="43.23" /><vehicle id="veh391" type="vType_car_51.2985818439547" route="route_west_to_east" depart="44.09" /><vehicle id="veh394" type="vType_car_40.742291824273885" route="route_west_to_east" depart="46.77" /><vehicle id="veh398" type="vType_car_46.044139908642826" route="route_west_to_east" depart="48.81" /><vehicle id="veh401" type="vType_car_56.59066667800494" route="route_west_to_east" depart="51.13" /><vehicle id="veh403" type="vType_car_39.427281849385786" route="route_east_to_west" depart="52.28" /><vehicle id="veh408" type="vType_car_14.664864451360085" route="route_east_to_north" depart="55.35" /></routes>