<?xml version='1.0' encoding='utf-8'?>
<routes><vType id="vType_car_21.373813654063998" accel="1.0" decel="5.0" sigma="0.0" length="4.5" maxSpeed="5.937170459462221" /><vType id="vType_car_16.628598578481498" accel="1.0" decel="5.0" sigma="0.0" length="4.5" maxSpeed="4.619055160689305" /><vType id="vType_car_17.89574592527588" accel="1.0" decel="5.0" sigma="0.0" length="4.5" maxSpeed="4.971040534798855" /><vType id="vType_car_69.18361504406303" accel="1.0" decel="5.0" sigma="0.0" length="4.5" maxSpeed="19.217670845573064" /><vType id="vType_car_10.889543653140258" accel="1.0" decel="5.0" sigma="0.0" length="4.5" maxSpeed="3.024873236983405" /><vType id="vType_car_5.333535926910913" accel="1.0" decel="5.0" sigma="0.0" length="4.5" maxSpeed="1.4815377574752535" /><vType id="vType_car_16.51471693243366" accel="1.0" decel="5.0" sigma="0.0" length="4.5" maxSpeed="4.587421370120461" /><vType id="vType_car_22.799032989715826" accel="1.0" decel="5.0" sigma="0.0" length="4.5" maxSpeed="6.333064719365507" /><vType id="vType_car_5.314561285894796" accel="1.0" decel="5.0" sigma="0.0" length="4.5" maxSpeed="1.4762670238596656" /><vType id="vType_car_20.935376926433165" accel="1.0" decel="5.0" sigma="0.0" length="4.5" maxSpeed="5.815382479564768" /><vType id="vType_car_4.169979220597939" accel="1.0" decel="5.0" sigma="0.0" length="4.5" maxSpeed="1.1583275612772053" /><vType id="vType_car_5.9738373572423304" accel="1.0" decel="5.0" sigma="0.0" length="4.5" maxSpeed="1.6593992659006473" /><route id="route_north_to_east" edges="north_to_center center_to_east" /><route id="route_north_to_south" edges="north_to_center center_to_south" /><route id="route_north_to_west" edges="north_to_center center_to_west" /><route id="route_east_to_west" edges="east_to_center center_to_west" /><route id="route_east_to_south" edges="east_to_center center_to_south" /><route id="route_east_to_north" edges="east_to_center center_to_north" /><route id="route_south_to_west" edges="south_to_center center_to_west" /><route id="route_south_to_north" edges="south_to_center center_to_north" /><route id="route_south_to_east" edges="south_to_center center_to_east" /><route id="route_west_to_south" edges="west_to_center center_to_south" /><route id="route_west_to_north" edges="west_to_center center_to_north" /><route id="route_west_to_east" edges="west_to_center center_to_east" /><vehicle id="veh292" type="vType_car_16.628598578481498" route="route_east_to_south" depart="0.03" /><vehicle id="veh296" type="vType_car_17.89574592527588" route="route_south_to_north" depart="0.03" /><vehicle id="veh298" type="vType_car_69.18361504406303" route="route_west_to_east" depart="0.03" /><vehicle id="veh297" type="vType_car_10.889543653140258" route="route_north_to_east" depart="0.03" /><vehicle id="veh301" type="vType_car_16.51471693243366" route="route_south_to_north" depart="7.88" /><vehicle id="veh305" type="vType_car_22.799032989715826" route="route_east_to_west" depart="27.53" /><vehicle id="veh307" type="vType_car_20.935376926433165" route="route_west_to_east" depart="34.94" /></routes>