<?xml version='1.0' encoding='utf-8'?>
<routes><vType id="vType_car_50.44332912026705" accel="1.0" decel="5.0" sigma="0.0" length="4.5" maxSpeed="14.012035866740847" /><vType id="vType_car_11.422662243554187" accel="1.0" decel="5.0" sigma="0.0" length="4.5" maxSpeed="3.1729617343206074" /><vType id="vType_car_41.52162079052216" accel="1.0" decel="5.0" sigma="0.0" length="4.5" maxSpeed="11.533783552922822" /><vType id="vType_car_54.95387896174006" accel="1.0" decel="5.0" sigma="0.0" length="4.5" maxSpeed="15.264966378261127" /><vType id="vType_car_11.727354284901901" accel="1.0" decel="5.0" sigma="0.0" length="4.5" maxSpeed="3.2575984124727504" /><vType id="vType_car_10.308287278086341" accel="1.0" decel="5.0" sigma="0.0" length="4.5" maxSpeed="2.8634131328017616" /><vType id="vType_car_7.8667768932621085" accel="1.0" decel="5.0" sigma="0.0" length="4.5" maxSpeed="2.185215803683919" /><vType id="vType_car_7.9722564825127" accel="1.0" decel="5.0" sigma="0.0" length="4.5" maxSpeed="2.214515689586861" /><vType id="vType_car_6.263671809283591" accel="1.0" decel="5.0" sigma="0.0" length="4.5" maxSpeed="1.7399088359121084" /><vType id="vType_car_8.889658011002687" accel="1.0" decel="5.0" sigma="0.0" length="4.5" maxSpeed="2.4693494475007465" /><vType id="vType_car_9.494884703273284" accel="1.0" decel="5.0" sigma="0.0" length="4.5" maxSpeed="2.637467973131468" /><vType id="vType_car_4.000652656397596" accel="1.0" decel="5.0" sigma="0.0" length="4.5" maxSpeed="1.1112924045548878" /><vType id="vType_car_5.514874396457801" accel="1.0" decel="5.0" sigma="0.0" length="4.5" maxSpeed="1.5319095545716113" /><vType id="vType_car_13.458518268286946" accel="1.0" decel="5.0" sigma="0.0" length="4.5" maxSpeed="3.7384772967463737" /><vType id="vType_car_3.053079384329504" accel="1.0" decel="5.0" sigma="0.0" length="4.5" maxSpeed="0.8480776067581955" /><vType id="vType_car_32.562920959458175" accel="1.0" decel="5.0" sigma="0.0" length="4.5" maxSpeed="9.045255822071715" /><vType id="vType_car_4.309306043699448" accel="1.0" decel="5.0" sigma="0.0" length="4.5" maxSpeed="1.19702945658318" /><vType id="vType_car_41.01700352461605" accel="1.0" decel="5.0" sigma="0.0" length="4.5" maxSpeed="11.393612090171125" /><vType id="vType_car_3.2837386737074015" accel="1.0" decel="5.0" sigma="0.0" length="4.5" maxSpeed="0.9121496315853893" /><vType id="vType_car_39.14631904076582" accel="1.0" decel="5.0" sigma="0.0" length="4.5" maxSpeed="10.873977511323838" /><vType id="vType_car_40.7033360748915" accel="1.0" decel="5.0" sigma="0.0" length="4.5" maxSpeed="11.306482243025417" /><vType id="vType_car_8.830337298034504" accel="1.0" decel="5.0" sigma="0.0" length="4.5" maxSpeed="2.452871471676251" /><vType id="vType_car_36.175765145406075" accel="1.0" decel="5.0" sigma="0.0" length="4.5" maxSpeed="10.048823651501687" /><vType id="vType_car_47.58756771728298" accel="1.0" decel="5.0" sigma="0.0" length="4.5" maxSpeed="13.218768810356384" /><vType id="vType_truck_19.569881625475425" accel="1.0" decel="5.0" sigma="0.0" length="8" maxSpeed="5.436078229298729" /><vType id="vType_car_4.158179498785207" accel="1.0" decel="5.0" sigma="0.0" length="4.5" maxSpeed="1.1550498607736688" /><vType id="vType_car_2.766589646096017" accel="1.0" decel="5.0" sigma="0.0" length="4.5" maxSpeed="0.7684971239155602" /><vType id="vType_car_43.078168031904355" accel="1.0" decel="5.0" sigma="0.0" length="4.5" maxSpeed="11.966157786640098" /><vType id="vType_car_47.53639154804012" accel="1.0" decel="5.0" sigma="0.0" length="4.5" maxSpeed="13.204553207788923" /><vType id="vType_car_37.83004543789416" accel="1.0" decel="5.0" sigma="0.0" length="4.5" maxSpeed="10.508345954970599" /><vType id="vType_car_36.398721534669995" accel="1.0" decel="5.0" sigma="0.0" length="4.5" maxSpeed="10.110755981852776" /><vType id="vType_car_38.10409804849318" accel="1.0" decel="5.0" sigma="0.0" length="4.5" maxSpeed="10.584471680136994" /><vType id="vType_car_3.5630670883542024" accel="1.0" decel="5.0" sigma="0.0" length="4.5" maxSpeed="0.9897408578761673" /><vType id="vType_car_46.22511661622315" accel="1.0" decel="5.0" sigma="0.0" length="4.5" maxSpeed="12.840310171173096" /><vType id="vType_car_2.860442609921165" accel="1.0" decel="5.0" sigma="0.0" length="4.5" maxSpeed="0.7945673916447681" /><vType id="vType_car_45.941468865528655" accel="1.0" decel="5.0" sigma="0.0" length="4.5" maxSpeed="12.761519129313514" /><vType id="vType_car_9.227860572723971" accel="1.0" decel="5.0" sigma="0.0" length="4.5" maxSpeed="2.563294603534436" /><vType id="vType_car_11.695471875810293" accel="1.0" decel="5.0" sigma="0.0" length="4.5" maxSpeed="3.2487421877250813" /><vType id="vType_car_16.502789565677674" accel="1.0" decel="5.0" sigma="0.0" length="4.5" maxSpeed="4.584108212688243" /><vType id="vType_car_56.132832251486576" accel="1.0" decel="5.0" sigma="0.0" length="4.5" maxSpeed="15.592453403190715" /><vType id="vType_car_48.00469925249562" accel="1.0" decel="5.0" sigma="0.0" length="4.5" maxSpeed="13.334638681248784" /><vType id="vType_car_9.35950718036272" accel="1.0" decel="5.0" sigma="0.0" length="4.5" maxSpeed="2.599863105656311" /><vType id="vType_car_2.9826297149731453" accel="1.0" decel="5.0" sigma="0.0" length="4.5" maxSpeed="0.828508254159207" /><vType id="vType_car_3.3645498973097383" accel="1.0" decel="5.0" sigma="0.0" length="4.5" maxSpeed="0.9345971936971496" /><vType id="vType_car_6.186282514517781" accel="1.0" decel="5.0" sigma="0.0" length="4.5" maxSpeed="1.7184118095882723" /><vType id="vType_car_42.01469386904999" accel="1.0" decel="5.0" sigma="0.0" length="4.5" maxSpeed="11.670748296958331" /><vType id="vType_car_6.816808595141266" accel="1.0" decel="5.0" sigma="0.0" length="4.5" maxSpeed="1.893557943094796" /><vType id="vType_car_3.418681079267678" accel="1.0" decel="5.0" sigma="0.0" length="4.5" maxSpeed="0.9496336331299106" /><vType id="vType_car_2.7604179740516313" accel="1.0" decel="5.0" sigma="0.0" length="4.5" maxSpeed="0.7667827705698975" /><vType id="vType_car_37.05085624591724" accel="1.0" decel="5.0" sigma="0.0" length="4.5" maxSpeed="10.291904512754789" /><vType id="vType_car_8.967568192229061" accel="1.0" decel="5.0" sigma="0.0" length="4.5" maxSpeed="2.4909911645080727" /><vType id="vType_car_5.3912694413684035" accel="1.0" decel="5.0" sigma="0.0" length="4.5" maxSpeed="1.4975748448245565" /><vType id="vType_car_13.659873347408421" accel="1.0" decel="5.0" sigma="0.0" length="4.5" maxSpeed="3.7944092631690056" /><vType id="vType_car_7.760491857889279" accel="1.0" decel="5.0" sigma="0.0" length="4.5" maxSpeed="2.1556921827470217" /><vType id="vType_car_15.4624892619001" accel="1.0" decel="5.0" sigma="0.0" length="4.5" maxSpeed="4.2951359060833605" /><vType id="vType_car_9.265873972839785" accel="1.0" decel="5.0" sigma="0.0" length="4.5" maxSpeed="2.5738538813443848" /><vType id="vType_car_14.787660348667798" accel="1.0" decel="5.0" sigma="0.0" length="4.5" maxSpeed="4.107683430185499" /><vType id="vType_car_4.149884469144025" accel="1.0" decel="5.0" sigma="0.0" length="4.5" maxSpeed="1.1527456858733403" /><vType id="vType_car_6.370835236631489" accel="1.0" decel="5.0" sigma="0.0" length="4.5" maxSpeed="1.769676454619858" /><vType id="vType_car_6.5773184751780756" accel="1.0" decel="5.0" sigma="0.0" length="4.5" maxSpeed="1.8270329097716875" /><vType id="vType_car_10.84631279972918" accel="1.0" decel="5.0" sigma="0.0" length="4.5" maxSpeed="3.012864666591439" /><vType id="vType_car_48.86705571934823" accel="1.0" decel="5.0" sigma="0.0" length="4.5" maxSpeed="13.574182144263396" /><vType id="vType_car_3.9063378249769363" accel="1.0" decel="5.0" sigma="0.0" length="4.5" maxSpeed="1.0850938402713712" /><vType id="vType_car_4.843627133957647" accel="1.0" decel="5.0" sigma="0.0" length="4.5" maxSpeed="1.345451981654902" /><vType id="vType_car_21.09075296947438" accel="1.0" decel="5.0" sigma="0.0" length="4.5" maxSpeed="5.858542491520661" /><vType id="vType_car_3.223154828231588" accel="1.0" decel="5.0" sigma="0.0" length="4.5" maxSpeed="0.8953207856198855" /><vType id="vType_car_19.880704958039694" accel="1.0" decel="5.0" sigma="0.0" length="4.5" maxSpeed="5.522418043899915" /><vType id="vType_car_4.419339534741923" accel="1.0" decel="5.0" sigma="0.0" length="4.5" maxSpeed="1.2275943152060895" /><vType id="vType_car_3.111469348911253" accel="1.0" decel="5.0" sigma="0.0" length="4.5" maxSpeed="0.8642970413642369" /><vType id="vType_car_25.3387575411244" accel="1.0" decel="5.0" sigma="0.0" length="4.5" maxSpeed="7.038543761423445" /><vType id="vType_car_17.313054978971525" accel="1.0" decel="5.0" sigma="0.0" length="4.5" maxSpeed="4.809181938603201" /><vType id="vType_car_4.9765124121698525" accel="1.0" decel="5.0" sigma="0.0" length="4.5" maxSpeed="1.38236455893607" /><vType id="vType_car_1.2295953982648964" accel="1.0" decel="5.0" sigma="0.0" length="4.5" maxSpeed="0.34155427729580456" /><vType id="vType_car_0.9221965486986724" accel="1.0" decel="5.0" sigma="0.0" length="4.5" maxSpeed="0.25616570797185345" /><vType id="vType_car_20.404109083580114" accel="1.0" decel="5.0" sigma="0.0" length="4.5" maxSpeed="5.667808078772254" /><vType id="vType_car_53.138801189523114" accel="1.0" decel="5.0" sigma="0.0" length="4.5" maxSpeed="14.760778108200865" /><vType id="vType_car_48.4153188066803" accel="1.0" decel="5.0" sigma="0.0" length="4.5" maxSpeed="13.448699668522304" /><vType id="vType_car_55.443770723695906" accel="1.0" decel="5.0" sigma="0.0" length="4.5" maxSpeed="15.401047423248862" /><vType id="vType_car_9.26149780597558" accel="1.0" decel="5.0" sigma="0.0" length="4.5" maxSpeed="2.572638279437661" /><vType id="vType_car_8.935975910723055" accel="1.0" decel="5.0" sigma="0.0" length="4.5" maxSpeed="2.482215530756404" /><vType id="vType_car_45.98305317705773" accel="1.0" decel="5.0" sigma="0.0" length="4.5" maxSpeed="12.773070326960479" /><vType id="vType_car_24.86751784703821" accel="1.0" decel="5.0" sigma="0.0" length="4.5" maxSpeed="6.907643846399503" /><vType id="vType_car_20.67217102473377" accel="1.0" decel="5.0" sigma="0.0" length="4.5" maxSpeed="5.7422697290927145" /><vType id="vType_car_50.38021238183779" accel="1.0" decel="5.0" sigma="0.0" length="4.5" maxSpeed="13.994503439399384" /><vType id="vType_car_10.379267638271045" accel="1.0" decel="5.0" sigma="0.0" length="4.5" maxSpeed="2.883129899519735" /><vType id="vType_car_12.90918592481306" accel="1.0" decel="5.0" sigma="0.0" length="4.5" maxSpeed="3.585884979114739" /><vType id="vType_car_3.90951793396662" accel="1.0" decel="5.0" sigma="0.0" length="4.5" maxSpeed="1.0859772038796167" /><vType id="vType_car_32.56840543204278" accel="1.0" decel="5.0" sigma="0.0" length="4.5" maxSpeed="9.04677928667855" /><vType id="vType_car_10.370093992453947" accel="1.0" decel="5.0" sigma="0.0" length="4.5" maxSpeed="2.8805816645705407" /><vType id="vType_car_25.128833573075788" accel="1.0" decel="5.0" sigma="0.0" length="4.5" maxSpeed="6.980231548076608" /><vType id="vType_car_21.294959528989608" accel="1.0" decel="5.0" sigma="0.0" length="4.5" maxSpeed="5.915266535830447" /><vType id="vType_car_67.15878050301248" accel="1.0" decel="5.0" sigma="0.0" length="4.5" maxSpeed="18.655216806392357" /><vType id="vType_car_43.46582145094476" accel="1.0" decel="5.0" sigma="0.0" length="4.5" maxSpeed="12.073839291929099" /><vType id="vType_car_24.187654126394058" accel="1.0" decel="5.0" sigma="0.0" length="4.5" maxSpeed="6.718792812887238" /><vType id="vType_car_12.107215459498512" accel="1.0" decel="5.0" sigma="0.0" length="4.5" maxSpeed="3.363115405416253" /><vType id="vType_car_16.13185113916296" accel="1.0" decel="5.0" sigma="0.0" length="4.5" maxSpeed="4.4810697608786" /><vType id="vType_car_17.94282440246604" accel="1.0" decel="5.0" sigma="0.0" length="4.5" maxSpeed="4.9841178895739" /><vType id="vType_car_2.222437024589127" accel="1.0" decel="5.0" sigma="0.0" length="4.5" maxSpeed="0.6173436179414241" /><vType id="vType_car_10.602258145664862" accel="1.0" decel="5.0" sigma="0.0" length="4.5" maxSpeed="2.9450717071291286" /><vType id="vType_car_8.763415262272291" accel="1.0" decel="5.0" sigma="0.0" length="4.5" maxSpeed="2.4342820172978588" /><vType id="vType_car_21.086134239707572" accel="1.0" decel="5.0" sigma="0.0" length="4.5" maxSpeed="5.8572595110298815" /><vType id="vType_car_53.37640422721679" accel="1.0" decel="5.0" sigma="0.0" length="4.5" maxSpeed="14.826778952004663" /><vType id="vType_car_27.083172668880497" accel="1.0" decel="5.0" sigma="0.0" length="4.5" maxSpeed="7.523103519133471" /><vType id="vType_car_2.2478540874530135" accel="1.0" decel="5.0" sigma="0.0" length="4.5" maxSpeed="0.6244039131813927" /><vType id="vType_car_122.43879390469161" accel="1.0" decel="5.0" sigma="0.0" length="4.5" maxSpeed="34.010776084636554" /><vType id="vType_car_23.667699664961685" accel="1.0" decel="5.0" sigma="0.0" length="4.5" maxSpeed="6.574361018044912" /><vType id="vType_car_25.345887481422796" accel="1.0" decel="5.0" sigma="0.0" length="4.5" maxSpeed="7.040524300395221" /><vType id="vType_car_18.018302469921842" accel="1.0" decel="5.0" sigma="0.0" length="4.5" maxSpeed="5.005084019422734" /><vType id="vType_car_3.904788065050685" accel="1.0" decel="5.0" sigma="0.0" length="4.5" maxSpeed="1.084663351402968" /><vType id="vType_car_7.859954808108217" accel="1.0" decel="5.0" sigma="0.0" length="4.5" maxSpeed="2.1833207800300602" /><vType id="vType_car_30.891934696989065" accel="1.0" decel="5.0" sigma="0.0" length="4.5" maxSpeed="8.581092971385852" /><vType id="vType_car_6.395484550798532" accel="1.0" decel="5.0" sigma="0.0" length="4.5" maxSpeed="1.7765234863329256" /><vType id="vType_car_3.631901306820636" accel="1.0" decel="5.0" sigma="0.0" length="4.5" maxSpeed="1.0088614741168433" /><vType id="vType_car_2.933644770137651" accel="1.0" decel="5.0" sigma="0.0" length="4.5" maxSpeed="0.8149013250382364" /><vType id="vType_car_3.194342966276637" accel="1.0" decel="5.0" sigma="0.0" length="4.5" maxSpeed="0.8873174906323992" /><vType id="vType_car_68.2875080013081" accel="1.0" decel="5.0" sigma="0.0" length="4.5" maxSpeed="18.968752222585582" /><vType id="vType_car_11.07456980571393" accel="1.0" decel="5.0" sigma="0.0" length="4.5" maxSpeed="3.0762693904760914" /><vType id="vType_car_30.507844465652603" accel="1.0" decel="5.0" sigma="0.0" length="4.5" maxSpeed="8.474401240459056" /><vType id="vType_car_2.957582804918342" accel="1.0" decel="5.0" sigma="0.0" length="4.5" maxSpeed="0.8215507791439839" /><vType id="vType_car_7.075766225629845" accel="1.0" decel="5.0" sigma="0.0" length="4.5" maxSpeed="1.9654906182305125" /><vType id="vType_car_20.330428508405223" accel="1.0" decel="5.0" sigma="0.0" length="4.5" maxSpeed="5.647341252334784" /><vType id="vType_car_6.818211243668391" accel="1.0" decel="5.0" sigma="0.0" length="4.5" maxSpeed="1.893947567685664" /><vType id="vType_car_30.285210671676275" accel="1.0" decel="5.0" sigma="0.0" length="4.5" maxSpeed="8.412558519910077" /><vType id="vType_car_4.504535714273586" accel="1.0" decel="5.0" sigma="0.0" length="4.5" maxSpeed="1.2512599206315516" /><vType id="vType_car_7.243285293397631" accel="1.0" decel="5.0" sigma="0.0" length="4.5" maxSpeed="2.012023692610453" /><vType id="vType_car_23.554794855376485" accel="1.0" decel="5.0" sigma="0.0" length="4.5" maxSpeed="6.542998570937913" /><vType id="vType_car_53.68317766964234" accel="1.0" decel="5.0" sigma="0.0" length="4.5" maxSpeed="14.911993797122872" /><vType id="vType_car_9.821715574242525" accel="1.0" decel="5.0" sigma="0.0" length="4.5" maxSpeed="2.728254326178479" /><vType id="vType_car_27.458053652241137" accel="1.0" decel="5.0" sigma="0.0" length="4.5" maxSpeed="7.627237125622538" /><vType id="vType_car_93.53090883745205" accel="1.0" decel="5.0" sigma="0.0" length="4.5" maxSpeed="25.980808010403344" /><vType id="vType_car_4.6317250394344525" accel="1.0" decel="5.0" sigma="0.0" length="4.5" maxSpeed="1.2865902887317924" /><vType id="vType_car_5.900797345436318" accel="1.0" decel="5.0" sigma="0.0" length="4.5" maxSpeed="1.6391103737323105" /><vType id="vType_car_42.263537755592125" accel="1.0" decel="5.0" sigma="0.0" length="4.5" maxSpeed="11.73987159877559" /><vType id="vType_car_43.73235496486606" accel="1.0" decel="5.0" sigma="0.0" length="4.5" maxSpeed="12.14787637912946" /><vType id="vType_car_2.766589646096018" accel="1.0" decel="5.0" sigma="0.0" length="4.5" maxSpeed="0.7684971239155606" /><vType id="vType_car_2.8119435747205412" accel="1.0" decel="5.0" sigma="0.0" length="4.5" maxSpeed="0.7810954374223725" /><vType id="vType_car_3.4535642616843942" accel="1.0" decel="5.0" sigma="0.0" length="4.5" maxSpeed="0.9593234060234428" /><vType id="vType_car_2.8897153535605695" accel="1.0" decel="5.0" sigma="0.0" length="4.5" maxSpeed="0.8026987093223804" /><vType id="vType_car_6.660830634802875" accel="1.0" decel="5.0" sigma="0.0" length="4.5" maxSpeed="1.8502307318896873" /><vType id="vType_car_18.57552490088666" accel="1.0" decel="5.0" sigma="0.0" length="4.5" maxSpeed="5.159868028024072" /><vType id="vType_car_21.918182740538715" accel="1.0" decel="5.0" sigma="0.0" length="4.5" maxSpeed="6.088384094594087" /><vType id="vType_car_8.072617830072328" accel="1.0" decel="5.0" sigma="0.0" length="4.5" maxSpeed="2.242393841686758" /><vType id="vType_car_25.33961113823953" accel="1.0" decel="5.0" sigma="0.0" length="4.5" maxSpeed="7.038780871733202" /><vType id="vType_car_37.56960370797793" accel="1.0" decel="5.0" sigma="0.0" length="4.5" maxSpeed="10.43600102999387" /><vType id="vType_car_34.99558638760521" accel="1.0" decel="5.0" sigma="0.0" length="4.5" maxSpeed="9.720996218779224" /><vType id="vType_car_7.986729980861395" accel="1.0" decel="5.0" sigma="0.0" length="4.5" maxSpeed="2.218536105794832" /><vType id="vType_car_52.52591754308449" accel="1.0" decel="5.0" sigma="0.0" length="4.5" maxSpeed="14.590532650856803" /><vType id="vType_car_4.132676452138312" accel="1.0" decel="5.0" sigma="0.0" length="4.5" maxSpeed="1.147965681149531" /><vType id="vType_car_8.291196923016855" accel="1.0" decel="5.0" sigma="0.0" length="4.5" maxSpeed="2.303110256393571" /><vType id="vType_car_9.127074844826623" accel="1.0" decel="5.0" sigma="0.0" length="4.5" maxSpeed="2.5352985680073954" /><vType id="vType_car_7.643993719054578" accel="1.0" decel="5.0" sigma="0.0" length="4.5" maxSpeed="2.1233315886262716" /><vType id="vType_car_7.550115356258546" accel="1.0" decel="5.0" sigma="0.0" length="4.5" maxSpeed="2.097254265627374" /><vType id="vType_car_5.814079002836654" accel="1.0" decel="5.0" sigma="0.0" length="4.5" maxSpeed="1.615021945232404" /><vType id="vType_car_5.16421672192474" accel="1.0" decel="5.0" sigma="0.0" length="4.5" maxSpeed="1.4345046449790944" /><route id="route_north_to_east" edges="north_to_center center_to_east" /><route id="route_north_to_south" edges="north_to_center center_to_south" /><route id="route_north_to_west" edges="north_to_center center_to_west" /><route id="route_east_to_west" edges="east_to_center center_to_west" /><route id="route_east_to_south" edges="east_to_center center_to_south" /><route id="route_east_to_north" edges="east_to_center center_to_north" /><route id="route_south_to_west" edges="south_to_center center_to_west" /><route id="route_south_to_north" edges="south_to_center center_to_north" /><route id="route_south_to_east" edges="south_to_center center_to_east" /><route id="route_west_to_south" edges="west_to_center center_to_south" /><route id="route_west_to_north" edges="west_to_center center_to_north" /><route id="route_west_to_east" edges="west_to_center center_to_east" /><vehicle id="veh2" type="vType_car_11.422662243554187" route="route_south_to_north" depart="0.05" /><vehicle id="veh3" type="vType_car_41.52162079052216" route="route_west_to_south" depart="0.05" /><vehicle id="veh5" type="vType_car_11.727354284901901" route="route_north_to_south" depart="0.05" /><vehicle id="veh6" type="vType_car_10.308287278086341" route="route_north_to_south" depart="0.05" /><vehicle id="veh7" type="vType_car_7.8667768932621085" route="route_east_to_south" depart="0.05" /><vehicle id="veh9" type="vType_car_6.263671809283591" route="route_north_to_south" depart="0.05" /><vehicle id="veh14" type="vType_car_13.458518268286946" route="route_east_to_north" depart="0.05" /><vehicle id="veh19" type="vType_car_32.562920959458175" route="route_east_to_west" depart="1.14" /><vehicle id="veh23" type="vType_car_41.01700352461605" route="route_east_to_west" depart="2.78" /><vehicle id="veh27" type="vType_car_39.14631904076582" route="route_east_to_west" depart="3.96" /><vehicle id="veh28" type="vType_car_40.7033360748915" route="route_west_to_east" depart="5.51" /><vehicle id="veh29" type="vType_car_8.830337298034504" route="route_south_to_east" depart="5.92" /><vehicle id="veh30" type="vType_car_36.175765145406075" route="route_east_to_west" depart="6.24" /><vehicle id="veh34" type="vType_car_47.58756771728298" route="route_east_to_west" depart="7.06" /><vehicle id="veh35" type="vType_truck_19.569881625475425" route="route_west_to_east" depart="7.74" /><vehicle id="veh38" type="vType_car_43.078168031904355" route="route_east_to_west" depart="9.52" /><vehicle id="veh39" type="vType_car_47.53639154804012" route="route_west_to_east" depart="11.11" /><vehicle id="veh40" type="vType_car_37.83004543789416" route="route_east_to_west" depart="11.39" /><vehicle id="veh41" type="vType_car_36.398721534669995" route="route_west_to_east" depart="12.84" /><vehicle id="veh42" type="vType_car_38.10409804849318" route="route_east_to_west" depart="13.44" /><vehicle id="veh45" type="vType_car_46.22511661622315" route="route_west_to_east" depart="16.35" /><vehicle id="veh49" type="vType_car_45.941468865528655" route="route_east_to_west" depart="17.99" /><vehicle id="veh54" type="vType_car_56.132832251486576" route="route_west_to_east" depart="25.82" /><vehicle id="veh57" type="vType_car_48.00469925249562" route="route_west_to_east" depart="27.51" /><vehicle id="veh62" type="vType_car_42.01469386904999" route="route_west_to_east" depart="31.20" /><vehicle id="veh70" type="vType_car_37.05085624591724" route="route_east_to_west" depart="33.84" /><vehicle id="veh74" type="vType_car_13.659873347408421" route="route_east_to_south" depart="39.67" /><vehicle id="veh77" type="vType_car_7.760491857889279" route="route_south_to_east" depart="40.40" /><vehicle id="veh79" type="vType_car_15.4624892619001" route="route_east_to_south" depart="43.77" /><vehicle id="veh81" type="vType_car_9.265873972839785" route="route_south_to_north" depart="44.18" /><vehicle id="veh82" type="vType_car_14.787660348667798" route="route_east_to_south" depart="48.41" /><vehicle id="veh89" type="vType_car_48.86705571934823" route="route_east_to_west" depart="60.98" /><vehicle id="veh93" type="vType_car_21.09075296947438" route="route_west_to_east" depart="69.64" /><vehicle id="veh97" type="vType_car_19.880704958039694" route="route_west_to_east" depart="73.37" /><vehicle id="veh154" type="vType_car_17.94282440246604" route="route_south_to_east" depart="87.22" /><vehicle id="veh172" type="vType_car_7.859954808108217" route="route_east_to_north" depart="92.86" /><vehicle id="veh173" type="vType_car_30.891934696989065" route="route_south_to_east" depart="93.09" /><vehicle id="veh184" type="vType_car_20.330428508405223" route="route_north_to_west" depart="97.19" /><vehicle id="veh186" type="vType_car_30.285210671676275" route="route_south_to_east" depart="97.24" /><vehicle id="veh189" type="vType_car_23.554794855376485" route="route_east_to_west" depart="99.51" /><vehicle id="veh193" type="vType_car_27.458053652241137" route="route_east_to_west" depart="100.20" /><vehicle id="veh207" type="vType_car_21.918182740538715" route="route_east_to_west" depart="103.75" /><vehicle id="veh215" type="vType_car_52.52591754308449" route="route_west_to_east" depart="105.39" /><vehicle id="veh218" type="vType_car_9.127074844826623" route="route_east_to_north" depart="109.76" /></routes>