<?xml version='1.0' encoding='utf-8'?>
<routes><vType id="vType_car_14.253354461913009" accel="1.0" decel="5.0" sigma="0.0" length="4.5" maxSpeed="3.959265128309169" /><vType id="vType_car_18.247799859871346" accel="1.0" decel="5.0" sigma="0.0" length="4.5" maxSpeed="5.068833294408707" /><vType id="vType_car_20.91666088122017" accel="1.0" decel="5.0" sigma="0.0" length="4.5" maxSpeed="5.810183578116714" /><vType id="vType_car_16.018547726744302" accel="1.0" decel="5.0" sigma="0.0" length="4.5" maxSpeed="4.449596590762306" /><vType id="vType_car_20.39448345963228" accel="1.0" decel="5.0" sigma="0.0" length="4.5" maxSpeed="5.6651342943423" /><vType id="vType_car_2.7870531988269813" accel="1.0" decel="5.0" sigma="0.0" length="4.5" maxSpeed="0.7741814441186059" /><vType id="vType_car_2.766589646096017" accel="1.0" decel="5.0" sigma="0.0" length="4.5" maxSpeed="0.7684971239155602" /><vType id="vType_car_11.18007563032817" accel="1.0" decel="5.0" sigma="0.0" length="4.5" maxSpeed="3.1055765639800472" /><vType id="vType_car_3.037528174533332" accel="1.0" decel="5.0" sigma="0.0" length="4.5" maxSpeed="0.8437578262592588" /><vType id="vType_car_2.9271371308148115" accel="1.0" decel="5.0" sigma="0.0" length="4.5" maxSpeed="0.8130936474485587" /><vType id="vType_car_6.9384261807840115" accel="1.0" decel="5.0" sigma="0.0" length="4.5" maxSpeed="1.9273406057733364" /><vType id="vType_car_38.9012177949901" accel="1.0" decel="5.0" sigma="0.0" length="4.5" maxSpeed="10.805893831941695" /><vType id="vType_truck_44.209956061815426" accel="1.0" decel="5.0" sigma="0.0" length="8" maxSpeed="12.280543350504285" /><vType id="vType_car_8.00396853695717" accel="1.0" decel="5.0" sigma="0.0" length="4.5" maxSpeed="2.223324593599214" /><vType id="vType_car_12.820582544256256" accel="1.0" decel="5.0" sigma="0.0" length="4.5" maxSpeed="3.561272928960071" /><vType id="vType_car_28.156681091948954" accel="1.0" decel="5.0" sigma="0.0" length="4.5" maxSpeed="7.821300303319154" /><vType id="vType_car_52.315202549971424" accel="1.0" decel="5.0" sigma="0.0" length="4.5" maxSpeed="14.532000708325395" /><vType id="vType_car_11.491054948806674" accel="1.0" decel="5.0" sigma="0.0" length="4.5" maxSpeed="3.191959708001854" /><vType id="vType_car_8.192354619483108" accel="1.0" decel="5.0" sigma="0.0" length="4.5" maxSpeed="2.27565406096753" /><vType id="vType_car_8.760101981678067" accel="1.0" decel="5.0" sigma="0.0" length="4.5" maxSpeed="2.433361661577241" /><vType id="vType_car_19.298666017987152" accel="1.0" decel="5.0" sigma="0.0" length="4.5" maxSpeed="5.360740560551987" /><vType id="vType_car_30.140890628768982" accel="1.0" decel="5.0" sigma="0.0" length="4.5" maxSpeed="8.372469619102494" /><vType id="vType_car_11.406941333594059" accel="1.0" decel="5.0" sigma="0.0" length="4.5" maxSpeed="3.1685948148872383" /><vType id="vType_car_24.789742216214243" accel="1.0" decel="5.0" sigma="0.0" length="4.5" maxSpeed="6.886039504503956" /><vType id="vType_car_6.451133120443277" accel="1.0" decel="5.0" sigma="0.0" length="4.5" maxSpeed="1.7919814223453547" /><vType id="vType_car_7.467503573610179" accel="1.0" decel="5.0" sigma="0.0" length="4.5" maxSpeed="2.07430654822505" /><vType id="vType_car_11.390274348094959" accel="1.0" decel="5.0" sigma="0.0" length="4.5" maxSpeed="3.163965096693044" /><vType id="vType_car_56.322708944376686" accel="1.0" decel="5.0" sigma="0.0" length="4.5" maxSpeed="15.645196928993524" /><vType id="vType_car_10.588639395341577" accel="1.0" decel="5.0" sigma="0.0" length="4.5" maxSpeed="2.941288720928216" /><vType id="vType_car_21.509709101468054" accel="1.0" decel="5.0" sigma="0.0" length="4.5" maxSpeed="5.974919194852237" /><vType id="vType_truck_9.97508082716696" accel="1.0" decel="5.0" sigma="0.0" length="8" maxSpeed="2.7708557853241556" /><vType id="vType_car_15.173122853799608" accel="1.0" decel="5.0" sigma="0.0" length="4.5" maxSpeed="4.214756348277668" /><vType id="vType_car_9.270192119163998" accel="1.0" decel="5.0" sigma="0.0" length="4.5" maxSpeed="2.5750533664344437" /><vType id="vType_car_40.097407781033255" accel="1.0" decel="5.0" sigma="0.0" length="4.5" maxSpeed="11.138168828064792" /><vType id="vType_car_18.059295303075857" accel="1.0" decel="5.0" sigma="0.0" length="4.5" maxSpeed="5.0164709175210715" /><vType id="vType_car_7.35878220702455" accel="1.0" decel="5.0" sigma="0.0" length="4.5" maxSpeed="2.0441061686179305" /><vType id="vType_car_58.88341554651767" accel="1.0" decel="5.0" sigma="0.0" length="4.5" maxSpeed="16.35650431847713" /><vType id="vType_car_60.31251757313853" accel="1.0" decel="5.0" sigma="0.0" length="4.5" maxSpeed="16.75347710364959" /><vType id="vType_car_28.14432879313913" accel="1.0" decel="5.0" sigma="0.0" length="4.5" maxSpeed="7.817869109205314" /><vType id="vType_car_2.6399106300773587" accel="1.0" decel="5.0" sigma="0.0" length="4.5" maxSpeed="0.7333085083548219" /><vType id="vType_car_11.497442088701149" accel="1.0" decel="5.0" sigma="0.0" length="4.5" maxSpeed="3.1937339135280967" /><vType id="vType_car_3.6057838800324293" accel="1.0" decel="5.0" sigma="0.0" length="4.5" maxSpeed="1.0016066333423415" /><vType id="vType_car_2.4207659403340145" accel="1.0" decel="5.0" sigma="0.0" length="4.5" maxSpeed="0.6724349834261151" /><vType id="vType_car_3.744726795853509" accel="1.0" decel="5.0" sigma="0.0" length="4.5" maxSpeed="1.0402018877370858" /><vType id="vType_car_5.859730903354907" accel="1.0" decel="5.0" sigma="0.0" length="4.5" maxSpeed="1.6277030287096963" /><vType id="vType_car_9.843276369468935" accel="1.0" decel="5.0" sigma="0.0" length="4.5" maxSpeed="2.734243435963593" /><vType id="vType_car_42.32954762722157" accel="1.0" decel="5.0" sigma="0.0" length="4.5" maxSpeed="11.758207674228215" /><vType id="vType_car_6.961126561315998" accel="1.0" decel="5.0" sigma="0.0" length="4.5" maxSpeed="1.9336462670322216" /><vType id="vType_car_35.749407395461645" accel="1.0" decel="5.0" sigma="0.0" length="4.5" maxSpeed="9.93039094318379" /><vType id="vType_car_16.225778855518392" accel="1.0" decel="5.0" sigma="0.0" length="4.5" maxSpeed="4.507160793199553" /><vType id="vType_car_9.52873513595897" accel="1.0" decel="5.0" sigma="0.0" length="4.5" maxSpeed="2.6468708710997135" /><vType id="vType_car_14.95214589101912" accel="1.0" decel="5.0" sigma="0.0" length="4.5" maxSpeed="4.153373858616422" /><vType id="vType_car_5.564488096418179" accel="1.0" decel="5.0" sigma="0.0" length="4.5" maxSpeed="1.5456911378939386" /><vType id="vType_car_6.576188734450563" accel="1.0" decel="5.0" sigma="0.0" length="4.5" maxSpeed="1.826719092902934" /><vType id="vType_car_49.21058104239125" accel="1.0" decel="5.0" sigma="0.0" length="4.5" maxSpeed="13.669605845108679" /><vType id="vType_car_48.49878624245303" accel="1.0" decel="5.0" sigma="0.0" length="4.5" maxSpeed="13.471885067348063" /><vType id="vType_car_46.45999217459496" accel="1.0" decel="5.0" sigma="0.0" length="4.5" maxSpeed="12.905553381831933" /><vType id="vType_car_36.846249821988785" accel="1.0" decel="5.0" sigma="0.0" length="4.5" maxSpeed="10.235069394996884" /><vType id="vType_car_55.609938799248205" accel="1.0" decel="5.0" sigma="0.0" length="4.5" maxSpeed="15.44720522201339" /><vType id="vType_car_19.753458581609245" accel="1.0" decel="5.0" sigma="0.0" length="4.5" maxSpeed="5.48707182822479" /><vType id="vType_car_8.04872444871517" accel="1.0" decel="5.0" sigma="0.0" length="4.5" maxSpeed="2.2357567913097696" /><vType id="vType_car_51.63774555369762" accel="1.0" decel="5.0" sigma="0.0" length="4.5" maxSpeed="14.34381820936045" /><vType id="vType_car_18.314481004350426" accel="1.0" decel="5.0" sigma="0.0" length="4.5" maxSpeed="5.087355834541785" /><vType id="vType_car_31.85001735926369" accel="1.0" decel="5.0" sigma="0.0" length="4.5" maxSpeed="8.847227044239913" /><vType id="vType_car_8.748724632702578" accel="1.0" decel="5.0" sigma="0.0" length="4.5" maxSpeed="2.430201286861827" /><vType id="vType_car_14.484204313891047" accel="1.0" decel="5.0" sigma="0.0" length="4.5" maxSpeed="4.023390087191958" /><vType id="vType_car_19.088012423695755" accel="1.0" decel="5.0" sigma="0.0" length="4.5" maxSpeed="5.302225673248821" /><vType id="vType_car_19.971894002157324" accel="1.0" decel="5.0" sigma="0.0" length="4.5" maxSpeed="5.5477483339325895" /><vType id="vType_car_29.702234803770548" accel="1.0" decel="5.0" sigma="0.0" length="4.5" maxSpeed="8.250620778825152" /><vType id="vType_car_17.274955019427356" accel="1.0" decel="5.0" sigma="0.0" length="4.5" maxSpeed="4.798598616507599" /><vType id="vType_car_24.098427387369355" accel="1.0" decel="5.0" sigma="0.0" length="4.5" maxSpeed="6.6940076076025985" /><vType id="vType_car_2.1065122248495793" accel="1.0" decel="5.0" sigma="0.0" length="4.5" maxSpeed="0.5851422846804387" /><vType id="vType_car_23.578114609126683" accel="1.0" decel="5.0" sigma="0.0" length="4.5" maxSpeed="6.549476280312967" /><vType id="vType_car_10.116555650605703" accel="1.0" decel="5.0" sigma="0.0" length="4.5" maxSpeed="2.810154347390473" /><vType id="vType_car_52.78221352106081" accel="1.0" decel="5.0" sigma="0.0" length="4.5" maxSpeed="14.661725978072447" /><vType id="vType_car_2.6793583878307548" accel="1.0" decel="5.0" sigma="0.0" length="4.5" maxSpeed="0.7442662188418763" /><vType id="vType_car_44.01181163652046" accel="1.0" decel="5.0" sigma="0.0" length="4.5" maxSpeed="12.225503232366794" /><vType id="vType_car_2.7665896460960164" accel="1.0" decel="5.0" sigma="0.0" length="4.5" maxSpeed="0.7684971239155601" /><vType id="vType_car_6.020268147058349" accel="1.0" decel="5.0" sigma="0.0" length="4.5" maxSpeed="1.672296707516208" /><vType id="vType_car_11.031453284903797" accel="1.0" decel="5.0" sigma="0.0" length="4.5" maxSpeed="3.0642925791399436" /><vType id="vType_car_2.535144093741921" accel="1.0" decel="5.0" sigma="0.0" length="4.5" maxSpeed="0.7042066927060892" /><vType id="vType_bus_3.1715503195754433" accel="1.0" decel="5.0" sigma="0.0" length="13" maxSpeed="0.8809861998820676" /><vType id="vType_car_4.990797602116198" accel="1.0" decel="5.0" sigma="0.0" length="4.5" maxSpeed="1.3863326672544996" /><vType id="vType_car_3.311012480499676" accel="1.0" decel="5.0" sigma="0.0" length="4.5" maxSpeed="0.9197256890276877" /><vType id="vType_car_3.648549708893737" accel="1.0" decel="5.0" sigma="0.0" length="4.5" maxSpeed="1.0134860302482602" /><vType id="vType_car_2.8036202597801387" accel="1.0" decel="5.0" sigma="0.0" length="4.5" maxSpeed="0.778783405494483" /><vType id="vType_car_4.2258331942685805" accel="1.0" decel="5.0" sigma="0.0" length="4.5" maxSpeed="1.1738425539634945" /><vType id="vType_car_3.223154828231588" accel="1.0" decel="5.0" sigma="0.0" length="4.5" maxSpeed="0.8953207856198855" /><vType id="vType_car_18.266087410290513" accel="1.0" decel="5.0" sigma="0.0" length="4.5" maxSpeed="5.0739131695251425" /><vType id="vType_car_8.215820567968386" accel="1.0" decel="5.0" sigma="0.0" length="4.5" maxSpeed="2.282172379991218" /><vType id="vType_car_16.885288535049817" accel="1.0" decel="5.0" sigma="0.0" length="4.5" maxSpeed="4.690357926402727" /><vType id="vType_car_5.641864162099412" accel="1.0" decel="5.0" sigma="0.0" length="4.5" maxSpeed="1.5671844894720588" /><vType id="vType_car_13.499144633090479" accel="1.0" decel="5.0" sigma="0.0" length="4.5" maxSpeed="3.7497623980806885" /><vType id="vType_car_1.7279874066534457" accel="1.0" decel="5.0" sigma="0.0" length="4.5" maxSpeed="0.4799965018481794" /><vType id="vType_car_5.225454767057621" accel="1.0" decel="5.0" sigma="0.0" length="4.5" maxSpeed="1.4515152130715614" /><vType id="vType_car_4.007482947075591" accel="1.0" decel="5.0" sigma="0.0" length="4.5" maxSpeed="1.1131897075209973" /><vType id="vType_car_13.310432960558353" accel="1.0" decel="5.0" sigma="0.0" length="4.5" maxSpeed="3.697342489043987" /><vType id="vType_car_5.230111333338605" accel="1.0" decel="5.0" sigma="0.0" length="4.5" maxSpeed="1.452808703705168" /><vType id="vType_car_17.627991812005074" accel="1.0" decel="5.0" sigma="0.0" length="4.5" maxSpeed="4.896664392223632" /><vType id="vType_car_28.98240690840097" accel="1.0" decel="5.0" sigma="0.0" length="4.5" maxSpeed="8.050668585666937" /><vType id="vType_car_29.32862712712515" accel="1.0" decel="5.0" sigma="0.0" length="4.5" maxSpeed="8.146840868645874" /><vType id="vType_car_27.226955777030927" accel="1.0" decel="5.0" sigma="0.0" length="4.5" maxSpeed="7.563043271397479" /><vType id="vType_car_49.9777895600615" accel="1.0" decel="5.0" sigma="0.0" length="4.5" maxSpeed="13.882719322239305" /><vType id="vType_car_20.02701073785225" accel="1.0" decel="5.0" sigma="0.0" length="4.5" maxSpeed="5.5630585382922915" /><vType id="vType_car_9.174409453203198" accel="1.0" decel="5.0" sigma="0.0" length="4.5" maxSpeed="2.548447070334222" /><vType id="vType_car_48.15619857794363" accel="1.0" decel="5.0" sigma="0.0" length="4.5" maxSpeed="13.376721827206563" /><vType id="vType_car_7.291652653688109" accel="1.0" decel="5.0" sigma="0.0" length="4.5" maxSpeed="2.0254590704689193" /><vType id="vType_car_32.006773789462315" accel="1.0" decel="5.0" sigma="0.0" length="4.5" maxSpeed="8.890770497072864" /><vType id="vType_car_5.576442843020339" accel="1.0" decel="5.0" sigma="0.0" length="4.5" maxSpeed="1.549011900838983" /><vType id="vType_car_24.91181118766968" accel="1.0" decel="5.0" sigma="0.0" length="4.5" maxSpeed="6.919947552130466" /><vType id="vType_car_22.890351252008617" accel="1.0" decel="5.0" sigma="0.0" length="4.5" maxSpeed="6.3584309033357265" /><vType id="vType_car_8.392974143391909" accel="1.0" decel="5.0" sigma="0.0" length="4.5" maxSpeed="2.3313817064977522" /><vType id="vType_car_2.845621298022497" accel="1.0" decel="5.0" sigma="0.0" length="4.5" maxSpeed="0.7904503605618046" /><vType id="vType_bus_3.078574960150146" accel="1.0" decel="5.0" sigma="0.0" length="13" maxSpeed="0.8551597111528184" /><vType id="vType_car_3.104582646521019" accel="1.0" decel="5.0" sigma="0.0" length="4.5" maxSpeed="0.8623840684780608" /><vType id="vType_car_3.424150160751692" accel="1.0" decel="5.0" sigma="0.0" length="4.5" maxSpeed="0.9511528224310255" /><vType id="vType_car_7.608121526764047" accel="1.0" decel="5.0" sigma="0.0" length="4.5" maxSpeed="2.113367090767791" /><vType id="vType_car_15.57281180517779" accel="1.0" decel="5.0" sigma="0.0" length="4.5" maxSpeed="4.325781056993831" /><vType id="vType_car_3.6618649976319704" accel="1.0" decel="5.0" sigma="0.0" length="4.5" maxSpeed="1.0171847215644363" /><vType id="vType_bus_19.51318899036567" accel="1.0" decel="5.0" sigma="0.0" length="13" maxSpeed="5.420330275101575" /><vType id="vType_car_39.35035346780075" accel="1.0" decel="5.0" sigma="0.0" length="4.5" maxSpeed="10.930653741055764" /><vType id="vType_car_18.295202761017332" accel="1.0" decel="5.0" sigma="0.0" length="4.5" maxSpeed="5.082000766949259" /><vType id="vType_car_14.813494047774777" accel="1.0" decel="5.0" sigma="0.0" length="4.5" maxSpeed="4.114859457715216" /><vType id="vType_car_2.932527698312312" accel="1.0" decel="5.0" sigma="0.0" length="4.5" maxSpeed="0.8145910273089755" /><vType id="vType_car_9.094352125596222" accel="1.0" decel="5.0" sigma="0.0" length="4.5" maxSpeed="2.5262089237767285" /><vType id="vType_car_44.53125226169719" accel="1.0" decel="5.0" sigma="0.0" length="4.5" maxSpeed="12.369792294915886" /><vType id="vType_car_21.054348073593474" accel="1.0" decel="5.0" sigma="0.0" length="4.5" maxSpeed="5.848430020442631" /><vType id="vType_car_20.89766337746428" accel="1.0" decel="5.0" sigma="0.0" length="4.5" maxSpeed="5.804906493740078" /><vType id="vType_car_34.98222030400445" accel="1.0" decel="5.0" sigma="0.0" length="4.5" maxSpeed="9.717283417779013" /><vType id="vType_car_43.12140121466311" accel="1.0" decel="5.0" sigma="0.0" length="4.5" maxSpeed="11.978167004073086" /><vType id="vType_car_15.885087398120483" accel="1.0" decel="5.0" sigma="0.0" length="4.5" maxSpeed="4.41252427725569" /><vType id="vType_car_6.017503877989472" accel="1.0" decel="5.0" sigma="0.0" length="4.5" maxSpeed="1.6715288549970755" /><vType id="vType_car_3.5495239956024363" accel="1.0" decel="5.0" sigma="0.0" length="4.5" maxSpeed="0.9859788876673434" /><vType id="vType_car_7.090218336920405" accel="1.0" decel="5.0" sigma="0.0" length="4.5" maxSpeed="1.9695050935890013" /><vType id="vType_bus_0.395227092299431" accel="1.0" decel="5.0" sigma="0.0" length="13" maxSpeed="0.1097853034165086" /><vType id="vType_car_23.150273198327895" accel="1.0" decel="5.0" sigma="0.0" length="4.5" maxSpeed="6.430631443979971" /><vType id="vType_car_55.72136064257019" accel="1.0" decel="5.0" sigma="0.0" length="4.5" maxSpeed="15.478155734047274" /><vType id="vType_car_7.643738905915611" accel="1.0" decel="5.0" sigma="0.0" length="4.5" maxSpeed="2.123260807198781" /><vType id="vType_car_64.01585523198287" accel="1.0" decel="5.0" sigma="0.0" length="4.5" maxSpeed="17.78218200888413" /><vType id="vType_car_45.28751654508391" accel="1.0" decel="5.0" sigma="0.0" length="4.5" maxSpeed="12.579865706967752" /><vType id="vType_car_7.174729711188187" accel="1.0" decel="5.0" sigma="0.0" length="4.5" maxSpeed="1.9929804753300517" /><vType id="vType_car_3.3395691225629927" accel="1.0" decel="5.0" sigma="0.0" length="4.5" maxSpeed="0.9276580896008313" /><vType id="vType_car_23.845286075215483" accel="1.0" decel="5.0" sigma="0.0" length="4.5" maxSpeed="6.6236905764487455" /><vType id="vType_car_26.63972073408695" accel="1.0" decel="5.0" sigma="0.0" length="4.5" maxSpeed="7.399922426135264" /><vType id="vType_car_41.94245653569245" accel="1.0" decel="5.0" sigma="0.0" length="4.5" maxSpeed="11.650682371025681" /><vType id="vType_car_30.533408056812455" accel="1.0" decel="5.0" sigma="0.0" length="4.5" maxSpeed="8.48150223800346" /><vType id="vType_car_19.04626502503306" accel="1.0" decel="5.0" sigma="0.0" length="4.5" maxSpeed="5.290629173620294" /><vType id="vType_car_13.946856747049234" accel="1.0" decel="5.0" sigma="0.0" length="4.5" maxSpeed="3.8741268741803427" /><vType id="vType_car_38.404113939997835" accel="1.0" decel="5.0" sigma="0.0" length="4.5" maxSpeed="10.667809427777176" /><vType id="vType_car_18.713771583561996" accel="1.0" decel="5.0" sigma="0.0" length="4.5" maxSpeed="5.198269884322777" /><vType id="vType_car_20.753184935754557" accel="1.0" decel="5.0" sigma="0.0" length="4.5" maxSpeed="5.764773593265155" /><vType id="vType_car_10.763146235051542" accel="1.0" decel="5.0" sigma="0.0" length="4.5" maxSpeed="2.989762843069873" /><vType id="vType_car_20.923646726570492" accel="1.0" decel="5.0" sigma="0.0" length="4.5" maxSpeed="5.8121240907140255" /><vType id="vType_car_6.519584322801865" accel="1.0" decel="5.0" sigma="0.0" length="4.5" maxSpeed="1.8109956452227403" /><vType id="vType_car_8.760907202000963" accel="1.0" decel="5.0" sigma="0.0" length="4.5" maxSpeed="2.433585333889156" /><vType id="vType_car_3.140892842495568" accel="1.0" decel="5.0" sigma="0.0" length="4.5" maxSpeed="0.8724702340265467" /><vType id="vType_car_4.479105679101136" accel="1.0" decel="5.0" sigma="0.0" length="4.5" maxSpeed="1.2441960219725376" /><vType id="vType_car_36.44230376000844" accel="1.0" decel="5.0" sigma="0.0" length="4.5" maxSpeed="10.1228621555579" /><vType id="vType_car_9.127234203853954" accel="1.0" decel="5.0" sigma="0.0" length="4.5" maxSpeed="2.535342834403876" /><vType id="vType_car_2.413925471428832" accel="1.0" decel="5.0" sigma="0.0" length="4.5" maxSpeed="0.6705348531746755" /><vType id="vType_car_22.574101706651405" accel="1.0" decel="5.0" sigma="0.0" length="4.5" maxSpeed="6.270583807403168" /><vType id="vType_car_3.2896576225160143" accel="1.0" decel="5.0" sigma="0.0" length="4.5" maxSpeed="0.9137937840322262" /><vType id="vType_bus_2.3516011991816144" accel="1.0" decel="5.0" sigma="0.0" length="13" maxSpeed="0.6532225553282262" /><vType id="vType_car_33.75280224619255" accel="1.0" decel="5.0" sigma="0.0" length="4.5" maxSpeed="9.375778401720153" /><vType id="vType_bus_2.766589646096017" accel="1.0" decel="5.0" sigma="0.0" length="13" maxSpeed="0.7684971239155602" /><vType id="vType_car_37.25963300228263" accel="1.0" decel="5.0" sigma="0.0" length="4.5" maxSpeed="10.349898056189618" /><vType id="vType_car_36.21425490159945" accel="1.0" decel="5.0" sigma="0.0" length="4.5" maxSpeed="10.059515250444292" /><vType id="vType_car_3.1485759637406674" accel="1.0" decel="5.0" sigma="0.0" length="4.5" maxSpeed="0.8746044343724075" /><vType id="vType_bus_2.519789137915691" accel="1.0" decel="5.0" sigma="0.0" length="13" maxSpeed="0.699941427198803" /><vType id="vType_car_3.325525160243155" accel="1.0" decel="5.0" sigma="0.0" length="4.5" maxSpeed="0.9237569889564319" /><vType id="vType_car_50.07694515218775" accel="1.0" decel="5.0" sigma="0.0" length="4.5" maxSpeed="13.910262542274374" /><vType id="vType_car_2.9472506300947288" accel="1.0" decel="5.0" sigma="0.0" length="4.5" maxSpeed="0.8186807305818691" /><vType id="vType_car_2.4522044590396512" accel="1.0" decel="5.0" sigma="0.0" length="4.5" maxSpeed="0.681167905288792" /><vType id="vType_car_3.5866731444446556" accel="1.0" decel="5.0" sigma="0.0" length="4.5" maxSpeed="0.996298095679071" /><vType id="vType_car_4.194492339668433" accel="1.0" decel="5.0" sigma="0.0" length="4.5" maxSpeed="1.1651367610190093" /><route id="route_north_to_east" edges="north_to_center center_to_east" /><route id="route_north_to_south" edges="north_to_center center_to_south" /><route id="route_north_to_west" edges="north_to_center center_to_west" /><route id="route_east_to_west" edges="east_to_center center_to_west" /><route id="route_east_to_south" edges="east_to_center center_to_south" /><route id="route_east_to_north" edges="east_to_center center_to_north" /><route id="route_south_to_west" edges="south_to_center center_to_west" /><route id="route_south_to_north" edges="south_to_center center_to_north" /><route id="route_south_to_east" edges="south_to_center center_to_east" /><route id="route_west_to_south" edges="west_to_center center_to_south" /><route id="route_west_to_north" edges="west_to_center center_to_north" /><route id="route_west_to_east" edges="west_to_center center_to_east" /><vehicle id="veh921" type="vType_car_14.253354461913009" route="route_west_to_north" depart="0.05" /><vehicle id="veh1011" type="vType_car_18.247799859871346" route="route_west_to_east" depart="0.05" /><vehicle id="veh1017" type="vType_car_20.91666088122017" route="route_west_to_east" depart="0.05" /><vehicle id="veh1023" type="vType_car_20.39448345963228" route="route_west_to_east" depart="0.05" /><vehicle id="veh1083" type="vType_car_8.00396853695717" route="route_east_to_north" depart="14.62" /><vehicle id="veh1084" type="vType_car_12.820582544256256" route="route_north_to_south" depart="14.85" /><vehicle id="veh1104" type="vType_car_56.322708944376686" route="route_west_to_east" depart="20.27" /><vehicle id="veh1120" type="vType_car_40.097407781033255" route="route_west_to_east" depart="23.86" /><vehicle id="veh1126" type="vType_car_60.31251757313853" route="route_west_to_east" depart="26.05" /><vehicle id="veh1137" type="vType_car_9.843276369468935" route="route_west_to_north" depart="30.15" /><vehicle id="veh1141" type="vType_car_16.225778855518392" route="route_north_to_south" depart="30.15" /><vehicle id="veh1142" type="vType_car_9.52873513595897" route="route_north_to_east" depart="30.15" /><vehicle id="veh1143" type="vType_car_14.95214589101912" route="route_north_to_south" depart="30.15" /><vehicle id="veh1151" type="vType_car_46.45999217459496" route="route_east_to_west" depart="31.24" /><vehicle id="veh1165" type="vType_car_14.484204313891047" route="route_west_to_east" depart="36.89" /><vehicle id="veh1166" type="vType_car_19.088012423695755" route="route_west_to_east" depart="36.89" /><vehicle id="veh1167" type="vType_car_19.971894002157324" route="route_south_to_west" depart="36.89" /><vehicle id="veh1169" type="vType_car_17.274955019427356" route="route_north_to_south" depart="36.89" /><vehicle id="veh1170" type="vType_car_24.098427387369355" route="route_east_to_south" depart="36.89" /><vehicle id="veh1177" type="vType_car_23.578114609126683" route="route_east_to_south" depart="38.99" /><vehicle id="veh1178" type="vType_car_10.116555650605703" route="route_north_to_east" depart="39.21" /><vehicle id="veh1181" type="vType_car_52.78221352106081" route="route_east_to_west" depart="41.03" /><vehicle id="veh1185" type="vType_car_44.01181163652046" route="route_east_to_west" depart="45.45" /><vehicle id="veh1189" type="vType_car_11.031453284903797" route="route_north_to_west" depart="51.15" /><vehicle id="veh1202" type="vType_car_18.266087410290513" route="route_north_to_south" depart="73.01" /><vehicle id="veh1204" type="vType_car_8.215820567968386" route="route_north_to_west" depart="73.96" /><vehicle id="veh1205" type="vType_car_16.885288535049817" route="route_west_to_east" depart="74.28" /><vehicle id="veh1219" type="vType_car_17.627991812005074" route="route_west_to_east" depart="81.52" /><vehicle id="veh1224" type="vType_car_20.02701073785225" route="route_north_to_west" depart="82.16" /><vehicle id="veh1246" type="vType_car_15.57281180517779" route="route_west_to_east" depart="91.04" /><vehicle id="veh1248" type="vType_bus_19.51318899036567" route="route_west_to_north" depart="94.64" /><vehicle id="veh1286" type="vType_car_38.404113939997835" route="route_west_to_east" depart="105.71" /><vehicle id="veh1287" type="vType_car_18.713771583561996" route="route_west_to_north" depart="105.71" /><vehicle id="veh1288" type="vType_car_20.753184935754557" route="route_north_to_west" depart="105.71" /><vehicle id="veh1296" type="vType_car_36.44230376000844" route="route_west_to_south" depart="106.57" /><vehicle id="veh1298" type="vType_car_9.127234203853954" route="route_north_to_west" depart="107.21" /><vehicle id="veh1301" type="vType_car_22.574101706651405" route="route_west_to_north" depart="108.44" /><vehicle id="veh1306" type="vType_car_33.75280224619255" route="route_west_to_east" depart="108.99" /><vehicle id="veh1309" type="vType_car_37.25963300228263" route="route_west_to_east" depart="111.72" /><vehicle id="veh1310" type="vType_car_36.21425490159945" route="route_west_to_east" depart="111.95" /><vehicle id="veh1315" type="vType_car_50.07694515218775" route="route_west_to_east" depart="115.27" /></routes>