<?xml version='1.0' encoding='utf-8'?>
<routes><vType id="vType_car_4.722048858006112" accel="1.0" decel="5.0" sigma="0.0" length="4.5" maxSpeed="1.3116802383350312" /><vType id="vType_car_86.74425674519117" accel="1.0" decel="5.0" sigma="0.0" length="4.5" maxSpeed="24.095626873664212" /><vType id="vType_car_26.817000742511524" accel="1.0" decel="5.0" sigma="0.0" length="4.5" maxSpeed="7.449166872919868" /><vType id="vType_car_10.743274562298653" accel="1.0" decel="5.0" sigma="0.0" length="4.5" maxSpeed="2.984242933971848" /><vType id="vType_car_10.417438530466306" accel="1.0" decel="5.0" sigma="0.0" length="4.5" maxSpeed="2.8937329251295294" /><vType id="vType_car_22.92048760723842" accel="1.0" decel="5.0" sigma="0.0" length="4.5" maxSpeed="6.366802113121784" /><vType id="vType_car_4.625899644252834" accel="1.0" decel="5.0" sigma="0.0" length="4.5" maxSpeed="1.284972123403565" /><vType id="vType_car_19.66282510691313" accel="1.0" decel="5.0" sigma="0.0" length="4.5" maxSpeed="5.461895863031424" /><vType id="vType_car_15.158564554965043" accel="1.0" decel="5.0" sigma="0.0" length="4.5" maxSpeed="4.2107123763791785" /><vType id="vType_car_32.79295710929883" accel="1.0" decel="5.0" sigma="0.0" length="4.5" maxSpeed="9.10915475258301" /><vType id="vType_car_16.38652935891358" accel="1.0" decel="5.0" sigma="0.0" length="4.5" maxSpeed="4.551813710809328" /><vType id="vType_car_20.331345643939137" accel="1.0" decel="5.0" sigma="0.0" length="4.5" maxSpeed="5.647596012205316" /><vType id="vType_car_16.59892567803557" accel="1.0" decel="5.0" sigma="0.0" length="4.5" maxSpeed="4.610812688343214" /><vType id="vType_bus_41.09352176586484" accel="1.0" decel="5.0" sigma="0.0" length="13" maxSpeed="11.414867157184679" /><vType id="vType_car_3.77763908640489" accel="1.0" decel="5.0" sigma="0.0" length="4.5" maxSpeed="1.049344190668025" /><vType id="vType_car_35.305613476629226" accel="1.0" decel="5.0" sigma="0.0" length="4.5" maxSpeed="9.807114854619229" /><vType id="vType_car_3.9857050899564768" accel="1.0" decel="5.0" sigma="0.0" length="4.5" maxSpeed="1.1071403027656879" /><vType id="vType_car_16.757804974699127" accel="1.0" decel="5.0" sigma="0.0" length="4.5" maxSpeed="4.654945826305313" /><vType id="vType_car_15.51757330018602" accel="1.0" decel="5.0" sigma="0.0" length="4.5" maxSpeed="4.31043702782945" /><vType id="vType_car_33.73915639783374" accel="1.0" decel="5.0" sigma="0.0" length="4.5" maxSpeed="9.37198788828715" /><vType id="vType_car_18.827720318044914" accel="1.0" decel="5.0" sigma="0.0" length="4.5" maxSpeed="5.229922310568032" /><vType id="vType_car_3.662134119562998" accel="1.0" decel="5.0" sigma="0.0" length="4.5" maxSpeed="1.0172594776563884" /><vType id="vType_car_20.340571596954362" accel="1.0" decel="5.0" sigma="0.0" length="4.5" maxSpeed="5.650158776931767" /><vType id="vType_car_5.5042546759527" accel="1.0" decel="5.0" sigma="0.0" length="4.5" maxSpeed="1.5289596322090833" /><vType id="vType_car_19.99362797115484" accel="1.0" decel="5.0" sigma="0.0" length="4.5" maxSpeed="5.553785547543011" /><vType id="vType_car_18.978476231915174" accel="1.0" decel="5.0" sigma="0.0" length="4.5" maxSpeed="5.27179895330977" /><vType id="vType_car_29.05006003200488" accel="1.0" decel="5.0" sigma="0.0" length="4.5" maxSpeed="8.069461120001355" /><vType id="vType_truck_30.99803496762464" accel="1.0" decel="5.0" sigma="0.0" length="8" maxSpeed="8.610565268784622" /><vType id="vType_car_3.987573580377151" accel="1.0" decel="5.0" sigma="0.0" length="4.5" maxSpeed="1.107659327882542" /><vType id="vType_car_26.19986626099962" accel="1.0" decel="5.0" sigma="0.0" length="4.5" maxSpeed="7.27774062805545" /><vType id="vType_car_29.80293295752376" accel="1.0" decel="5.0" sigma="0.0" length="4.5" maxSpeed="8.278592488201044" /><vType id="vType_car_3.5837940274455136" accel="1.0" decel="5.0" sigma="0.0" length="4.5" maxSpeed="0.9954983409570871" /><vType id="vType_car_4.091897229331037" accel="1.0" decel="5.0" sigma="0.0" length="4.5" maxSpeed="1.1366381192586215" /><vType id="vType_car_13.24815139244244" accel="1.0" decel="5.0" sigma="0.0" length="4.5" maxSpeed="3.680042053456233" /><vType id="vType_car_17.563203516746622" accel="1.0" decel="5.0" sigma="0.0" length="4.5" maxSpeed="4.878667643540728" /><vType id="vType_car_5.877952781751088" accel="1.0" decel="5.0" sigma="0.0" length="4.5" maxSpeed="1.6327646615975244" /><vType id="vType_car_5.03685211520652" accel="1.0" decel="5.0" sigma="0.0" length="4.5" maxSpeed="1.3991255875573667" /><vType id="vType_car_3.7776390864048905" accel="1.0" decel="5.0" sigma="0.0" length="4.5" maxSpeed="1.0493441906680252" /><vType id="vType_car_2.8164880258878244" accel="1.0" decel="5.0" sigma="0.0" length="4.5" maxSpeed="0.7823577849688401" /><vType id="vType_car_31.729580700537564" accel="1.0" decel="5.0" sigma="0.0" length="4.5" maxSpeed="8.81377241681599" /><vType id="vType_car_14.281927576310876" accel="1.0" decel="5.0" sigma="0.0" length="4.5" maxSpeed="3.9672021045307986" /><vType id="vType_car_4.187641586881398" accel="1.0" decel="5.0" sigma="0.0" length="4.5" maxSpeed="1.1632337741337215" /><vType id="vType_car_23.73374136523795" accel="1.0" decel="5.0" sigma="0.0" length="4.5" maxSpeed="6.592705934788319" /><vType id="vType_truck_28.854098683494804" accel="1.0" decel="5.0" sigma="0.0" length="8" maxSpeed="8.01502741208189" /><vType id="vType_car_3.408824129227344" accel="1.0" decel="5.0" sigma="0.0" length="4.5" maxSpeed="0.9468955914520399" /><vType id="vType_car_34.63625040576201" accel="1.0" decel="5.0" sigma="0.0" length="4.5" maxSpeed="9.621180668267225" /><vType id="vType_car_31.463749161222992" accel="1.0" decel="5.0" sigma="0.0" length="4.5" maxSpeed="8.739930322561943" /><vType id="vType_car_30.22323404305045" accel="1.0" decel="5.0" sigma="0.0" length="4.5" maxSpeed="8.395342789736237" /><vType id="vType_car_23.533489003138012" accel="1.0" decel="5.0" sigma="0.0" length="4.5" maxSpeed="6.537080278649448" /><vType id="vType_car_17.187557203987133" accel="1.0" decel="5.0" sigma="0.0" length="4.5" maxSpeed="4.774321445551982" /><vType id="vType_car_30.043761419045303" accel="1.0" decel="5.0" sigma="0.0" length="4.5" maxSpeed="8.34548928306814" /><vType id="vType_car_16.40865655564653" accel="1.0" decel="5.0" sigma="0.0" length="4.5" maxSpeed="4.557960154346258" /><vType id="vType_car_0.7555278172809782" accel="1.0" decel="5.0" sigma="0.0" length="4.5" maxSpeed="0.20986883813360505" /><vType id="vType_car_7.190580147612576" accel="1.0" decel="5.0" sigma="0.0" length="4.5" maxSpeed="1.9973833743368266" /><vType id="vType_car_2.1451593383513483" accel="1.0" decel="5.0" sigma="0.0" length="4.5" maxSpeed="0.5958775939864857" /><vType id="vType_car_32.70082943359135" accel="1.0" decel="5.0" sigma="0.0" length="4.5" maxSpeed="9.083563731553154" /><vType id="vType_car_4.278603578322323" accel="1.0" decel="5.0" sigma="0.0" length="4.5" maxSpeed="1.188500993978423" /><vType id="vType_car_6.749109242767491" accel="1.0" decel="5.0" sigma="0.0" length="4.5" maxSpeed="1.8747525674354142" /><vType id="vType_car_3.9625794476259815" accel="1.0" decel="5.0" sigma="0.0" length="4.5" maxSpeed="1.1007165132294392" /><vType id="vType_car_3.7609006712135638" accel="1.0" decel="5.0" sigma="0.0" length="4.5" maxSpeed="1.0446946308926566" /><vType id="vType_car_22.954877082451993" accel="1.0" decel="5.0" sigma="0.0" length="4.5" maxSpeed="6.376354745125553" /><vType id="vType_car_7.955035782783934" accel="1.0" decel="5.0" sigma="0.0" length="4.5" maxSpeed="2.209732161884426" /><vType id="vType_car_5.342388429744504" accel="1.0" decel="5.0" sigma="0.0" length="4.5" maxSpeed="1.48399678604014" /><vType id="vType_car_22.84532195281478" accel="1.0" decel="5.0" sigma="0.0" length="4.5" maxSpeed="6.345922764670772" /><vType id="vType_car_24.981325141796685" accel="1.0" decel="5.0" sigma="0.0" length="4.5" maxSpeed="6.939256983832412" /><vType id="vType_car_25.591656727858243" accel="1.0" decel="5.0" sigma="0.0" length="4.5" maxSpeed="7.108793535516178" /><vType id="vType_car_7.218829557833735" accel="1.0" decel="5.0" sigma="0.0" length="4.5" maxSpeed="2.005230432731593" /><vType id="vType_car_5.243643542669011" accel="1.0" decel="5.0" sigma="0.0" length="4.5" maxSpeed="1.4565676507413918" /><vType id="vType_car_9.775109325531902" accel="1.0" decel="5.0" sigma="0.0" length="4.5" maxSpeed="2.715308145981084" /><vType id="vType_car_38.99539414966277" accel="1.0" decel="5.0" sigma="0.0" length="4.5" maxSpeed="10.83205393046188" /><vType id="vType_car_13.297341708093708" accel="1.0" decel="5.0" sigma="0.0" length="4.5" maxSpeed="3.69370603002603" /><vType id="vType_car_3.7089897815196338" accel="1.0" decel="5.0" sigma="0.0" length="4.5" maxSpeed="1.0302749393110093" /><vType id="vType_car_7.95003723579029" accel="1.0" decel="5.0" sigma="0.0" length="4.5" maxSpeed="2.208343676608414" /><route id="route_north_to_east" edges="north_to_center center_to_east" /><route id="route_north_to_south" edges="north_to_center center_to_south" /><route id="route_north_to_west" edges="north_to_center center_to_west" /><route id="route_east_to_west" edges="east_to_center center_to_west" /><route id="route_east_to_south" edges="east_to_center center_to_south" /><route id="route_east_to_north" edges="east_to_center center_to_north" /><route id="route_south_to_west" edges="south_to_center center_to_west" /><route id="route_south_to_north" edges="south_to_center center_to_north" /><route id="route_south_to_east" edges="south_to_center center_to_east" /><route id="route_west_to_south" edges="west_to_center center_to_south" /><route id="route_west_to_north" edges="west_to_center center_to_north" /><route id="route_west_to_east" edges="west_to_center center_to_east" /><vehicle id="veh206" type="vType_car_10.743274562298653" route="route_west_to_north" depart="0.03" /><vehicle id="veh283" type="vType_car_22.92048760723842" route="route_north_to_west" depart="0.03" /><vehicle id="veh286" type="vType_car_19.66282510691313" route="route_south_to_north" depart="0.07" /><vehicle id="veh295" type="vType_car_32.79295710929883" route="route_north_to_south" depart="1.93" /><vehicle id="veh296" type="vType_car_20.331345643939137" route="route_west_to_east" depart="3.20" /><vehicle id="veh301" type="vType_bus_41.09352176586484" route="route_south_to_east" depart="4.10" /><vehicle id="veh305" type="vType_car_35.305613476629226" route="route_north_to_south" depart="5.20" /><vehicle id="veh311" type="vType_car_33.73915639783374" route="route_north_to_south" depart="8.04" /><vehicle id="veh312" type="vType_car_18.827720318044914" route="route_south_to_north" depart="8.14" /><vehicle id="veh316" type="vType_car_20.340571596954362" route="route_south_to_north" depart="10.34" /><vehicle id="veh318" type="vType_car_19.99362797115484" route="route_east_to_west" depart="10.94" /><vehicle id="veh323" type="vType_car_29.05006003200488" route="route_south_to_north" depart="13.38" /><vehicle id="veh324" type="vType_truck_30.99803496762464" route="route_north_to_south" depart="13.88" /><vehicle id="veh327" type="vType_car_26.19986626099962" route="route_south_to_north" depart="16.11" /><vehicle id="veh328" type="vType_car_29.80293295752376" route="route_north_to_south" depart="16.11" /><vehicle id="veh335" type="vType_car_13.24815139244244" route="route_north_to_west" depart="16.91" /><vehicle id="veh339" type="vType_car_5.877952781751088" route="route_east_to_north" depart="18.98" /><vehicle id="veh344" type="vType_car_31.729580700537564" route="route_south_to_north" depart="20.65" /><vehicle id="veh345" type="vType_car_14.281927576310876" route="route_west_to_north" depart="20.71" /><vehicle id="veh347" type="vType_car_23.73374136523795" route="route_south_to_north" depart="22.11" /><vehicle id="veh348" type="vType_truck_28.854098683494804" route="route_south_to_west" depart="22.11" /><vehicle id="veh351" type="vType_car_34.63625040576201" route="route_south_to_north" depart="23.41" /><vehicle id="veh355" type="vType_car_30.22323404305045" route="route_south_to_north" depart="24.92" /><vehicle id="veh361" type="vType_car_17.187557203987133" route="route_north_to_east" depart="26.92" /><vehicle id="veh363" type="vType_car_16.40865655564653" route="route_north_to_east" depart="27.05" /><vehicle id="veh366" type="vType_car_7.190580147612576" route="route_east_to_north" depart="28.65" /><vehicle id="veh368" type="vType_car_32.70082943359135" route="route_south_to_west" depart="29.25" /><vehicle id="veh370" type="vType_car_6.749109242767491" route="route_east_to_north" depart="29.99" /><vehicle id="veh375" type="vType_car_22.954877082451993" route="route_west_to_north" depart="37.06" /><vehicle id="veh376" type="vType_car_7.955035782783934" route="route_east_to_north" depart="37.16" /><vehicle id="veh380" type="vType_car_22.84532195281478" route="route_west_to_north" depart="41.09" /><vehicle id="veh381" type="vType_car_24.981325141796685" route="route_west_to_north" depart="42.69" /><vehicle id="veh382" type="vType_car_25.591656727858243" route="route_east_to_west" depart="44.43" /><vehicle id="veh390" type="vType_car_9.775109325531902" route="route_east_to_north" depart="50.16" /><vehicle id="veh392" type="vType_car_38.99539414966277" route="route_east_to_west" depart="52.63" /></routes>