<?xml version='1.0' encoding='utf-8'?>
<routes><vType id="vType_car_21.96666304633145" accel="1.0" decel="5.0" sigma="0.0" length="4.5" maxSpeed="6.101850846203181" /><vType id="vType_car_19.322705906975337" accel="1.0" decel="5.0" sigma="0.0" length="4.5" maxSpeed="5.367418307493149" /><vType id="vType_car_12.769485321842367" accel="1.0" decel="5.0" sigma="0.0" length="4.5" maxSpeed="3.5470792560673243" /><vType id="vType_car_21.133750700072916" accel="1.0" decel="5.0" sigma="0.0" length="4.5" maxSpeed="5.87048630557581" /><vType id="vType_car_21.637491362267532" accel="1.0" decel="5.0" sigma="0.0" length="4.5" maxSpeed="6.010414267296537" /><vType id="vType_car_12.569340690353348" accel="1.0" decel="5.0" sigma="0.0" length="4.5" maxSpeed="3.491483525098152" /><vType id="vType_car_49.882581277842775" accel="1.0" decel="5.0" sigma="0.0" length="4.5" maxSpeed="13.856272577178547" /><vType id="vType_car_25.4545842974708" accel="1.0" decel="5.0" sigma="0.0" length="4.5" maxSpeed="7.070717860408555" /><vType id="vType_car_73.05159236680205" accel="1.0" decel="5.0" sigma="0.0" length="4.5" maxSpeed="20.29210899077835" /><vType id="vType_car_3.6915288974716844" accel="1.0" decel="5.0" sigma="0.0" length="4.5" maxSpeed="1.0254246937421345" /><vType id="vType_car_17.417370913483094" accel="1.0" decel="5.0" sigma="0.0" length="4.5" maxSpeed="4.838158587078637" /><vType id="vType_car_17.890816287926288" accel="1.0" decel="5.0" sigma="0.0" length="4.5" maxSpeed="4.969671191090636" /><vType id="vType_car_27.94947614026747" accel="1.0" decel="5.0" sigma="0.0" length="4.5" maxSpeed="7.76374337229652" /><vType id="vType_car_13.167066766017134" accel="1.0" decel="5.0" sigma="0.0" length="4.5" maxSpeed="3.6575185461158704" /><vType id="vType_car_6.287380329018769" accel="1.0" decel="5.0" sigma="0.0" length="4.5" maxSpeed="1.746494535838547" /><vType id="vType_car_35.935248607802485" accel="1.0" decel="5.0" sigma="0.0" length="4.5" maxSpeed="9.982013502167357" /><vType id="vType_car_16.555667614176333" accel="1.0" decel="5.0" sigma="0.0" length="4.5" maxSpeed="4.598796559493426" /><vType id="vType_bus_57.43166276386332" accel="1.0" decel="5.0" sigma="0.0" length="13" maxSpeed="15.9532396566287" /><vType id="vType_bus_27.018101423394246" accel="1.0" decel="5.0" sigma="0.0" length="13" maxSpeed="7.505028173165068" /><vType id="vType_car_9.33373068952156" accel="1.0" decel="5.0" sigma="0.0" length="4.5" maxSpeed="2.5927029693115444" /><vType id="vType_car_27.138129625230057" accel="1.0" decel="5.0" sigma="0.0" length="4.5" maxSpeed="7.538369340341682" /><vType id="vType_car_3.5237321294047885" accel="1.0" decel="5.0" sigma="0.0" length="4.5" maxSpeed="0.978814480390219" /><vType id="vType_car_20.874534909541385" accel="1.0" decel="5.0" sigma="0.0" length="4.5" maxSpeed="5.798481919317052" /><vType id="vType_car_27.02764087185215" accel="1.0" decel="5.0" sigma="0.0" length="4.5" maxSpeed="7.50767801995893" /><vType id="vType_car_35.26440172206202" accel="1.0" decel="5.0" sigma="0.0" length="4.5" maxSpeed="9.795667145017227" /><vType id="vType_car_19.965104496169666" accel="1.0" decel="5.0" sigma="0.0" length="4.5" maxSpeed="5.5458623600471295" /><vType id="vType_car_36.118636273749715" accel="1.0" decel="5.0" sigma="0.0" length="4.5" maxSpeed="10.032954520486031" /><vType id="vType_car_16.385018818207826" accel="1.0" decel="5.0" sigma="0.0" length="4.5" maxSpeed="4.55139411616884" /><vType id="vType_car_33.24986628135661" accel="1.0" decel="5.0" sigma="0.0" length="4.5" maxSpeed="9.236073967043502" /><vType id="vType_car_4.966418040443318" accel="1.0" decel="5.0" sigma="0.0" length="4.5" maxSpeed="1.3795605667898105" /><vType id="vType_car_30.105783922853597" accel="1.0" decel="5.0" sigma="0.0" length="4.5" maxSpeed="8.362717756348221" /><vType id="vType_car_3.3725879161382357" accel="1.0" decel="5.0" sigma="0.0" length="4.5" maxSpeed="0.9368299767050654" /><vType id="vType_truck_32.67132540137706" accel="1.0" decel="5.0" sigma="0.0" length="8" maxSpeed="9.075368167049183" /><vType id="vType_car_28.642747809941145" accel="1.0" decel="5.0" sigma="0.0" length="4.5" maxSpeed="7.956318836094763" /><vType id="vType_car_9.709115316165635" accel="1.0" decel="5.0" sigma="0.0" length="4.5" maxSpeed="2.6969764767126763" /><vType id="vType_car_13.968209124179992" accel="1.0" decel="5.0" sigma="0.0" length="4.5" maxSpeed="3.8800580900499977" /><vType id="vType_car_38.63555321777506" accel="1.0" decel="5.0" sigma="0.0" length="4.5" maxSpeed="10.732098116048627" /><vType id="vType_car_3.82157867205277" accel="1.0" decel="5.0" sigma="0.0" length="4.5" maxSpeed="1.0615496311257695" /><vType id="vType_car_29.37718121668006" accel="1.0" decel="5.0" sigma="0.0" length="4.5" maxSpeed="8.160328115744461" /><vType id="vType_car_4.144143621279684" accel="1.0" decel="5.0" sigma="0.0" length="4.5" maxSpeed="1.1511510059110235" /><vType id="vType_car_33.19480301111806" accel="1.0" decel="5.0" sigma="0.0" length="4.5" maxSpeed="9.220778614199462" /><vType id="vType_car_25.190150766184775" accel="1.0" decel="5.0" sigma="0.0" length="4.5" maxSpeed="6.997264101717993" /><vType id="vType_car_28.901205496818896" accel="1.0" decel="5.0" sigma="0.0" length="4.5" maxSpeed="8.028112638005249" /><vType id="vType_car_32.46495130176893" accel="1.0" decel="5.0" sigma="0.0" length="4.5" maxSpeed="9.018042028269146" /><vType id="vType_car_36.093008075932445" accel="1.0" decel="5.0" sigma="0.0" length="4.5" maxSpeed="10.025835576647902" /><vType id="vType_car_11.7820883043491" accel="1.0" decel="5.0" sigma="0.0" length="4.5" maxSpeed="3.272802306763639" /><vType id="vType_car_21.86124923281736" accel="1.0" decel="5.0" sigma="0.0" length="4.5" maxSpeed="6.072569231338155" /><vType id="vType_car_31.162952568453786" accel="1.0" decel="5.0" sigma="0.0" length="4.5" maxSpeed="8.656375713459385" /><vType id="vType_car_7.8793045758491935" accel="1.0" decel="5.0" sigma="0.0" length="4.5" maxSpeed="2.188695715513665" /><vType id="vType_car_17.2701041391738" accel="1.0" decel="5.0" sigma="0.0" length="4.5" maxSpeed="4.7972511497705" /><vType id="vType_car_39.779702529307215" accel="1.0" decel="5.0" sigma="0.0" length="4.5" maxSpeed="11.049917369252004" /><vType id="vType_car_21.444479160461444" accel="1.0" decel="5.0" sigma="0.0" length="4.5" maxSpeed="5.956799766794846" /><vType id="vType_car_41.96760879694133" accel="1.0" decel="5.0" sigma="0.0" length="4.5" maxSpeed="11.65766911026148" /><vType id="vType_car_27.08753873757135" accel="1.0" decel="5.0" sigma="0.0" length="4.5" maxSpeed="7.524316315992041" /><vType id="vType_car_48.03333708617188" accel="1.0" decel="5.0" sigma="0.0" length="4.5" maxSpeed="13.342593635047745" /><vType id="vType_car_10.904639423562866" accel="1.0" decel="5.0" sigma="0.0" length="4.5" maxSpeed="3.0290665065452407" /><vType id="vType_car_24.49713540717233" accel="1.0" decel="5.0" sigma="0.0" length="4.5" maxSpeed="6.804759835325647" /><vType id="vType_car_51.2985818439547" accel="1.0" decel="5.0" sigma="0.0" length="4.5" maxSpeed="14.249606067765194" /><vType id="vType_car_4.060546364148397" accel="1.0" decel="5.0" sigma="0.0" length="4.5" maxSpeed="1.127929545596777" /><vType id="vType_car_40.742291824273885" accel="1.0" decel="5.0" sigma="0.0" length="4.5" maxSpeed="11.317303284520523" /><vType id="vType_car_4.065082646586616" accel="1.0" decel="5.0" sigma="0.0" length="4.5" maxSpeed="1.1291896240518378" /><vType id="vType_car_46.044139908642826" accel="1.0" decel="5.0" sigma="0.0" length="4.5" maxSpeed="12.790038863511896" /><vType id="vType_car_15.651696615007728" accel="1.0" decel="5.0" sigma="0.0" length="4.5" maxSpeed="4.347693504168813" /><vType id="vType_car_56.59066667800494" accel="1.0" decel="5.0" sigma="0.0" length="4.5" maxSpeed="15.719629632779151" /><vType id="vType_car_39.427281849385786" accel="1.0" decel="5.0" sigma="0.0" length="4.5" maxSpeed="10.952022735940496" /><vType id="vType_car_38.594657145501664" accel="1.0" decel="5.0" sigma="0.0" length="4.5" maxSpeed="10.720738095972685" /><vType id="vType_car_14.241092627322985" accel="1.0" decel="5.0" sigma="0.0" length="4.5" maxSpeed="3.9558590631452732" /><vType id="vType_car_12.621607903912391" accel="1.0" decel="5.0" sigma="0.0" length="4.5" maxSpeed="3.5060021955312197" /><vType id="vType_bus_3.8181831116056437" accel="1.0" decel="5.0" sigma="0.0" length="13" maxSpeed="1.0606064198904566" /><vType id="vType_car_2.1100854207409667" accel="1.0" decel="5.0" sigma="0.0" length="4.5" maxSpeed="0.586134839094713" /><vType id="vType_car_56.05113238882919" accel="1.0" decel="5.0" sigma="0.0" length="4.5" maxSpeed="15.569758996896997" /><vType id="vType_bus_3.154358645569083" accel="1.0" decel="5.0" sigma="0.0" length="13" maxSpeed="0.8762107348803008" /><vType id="vType_car_11.034304511360974" accel="1.0" decel="5.0" sigma="0.0" length="4.5" maxSpeed="3.065084586489159" /><vType id="vType_car_5.863864716692556" accel="1.0" decel="5.0" sigma="0.0" length="4.5" maxSpeed="1.6288513101923767" /><vType id="vType_car_13.869107728102623" accel="1.0" decel="5.0" sigma="0.0" length="4.5" maxSpeed="3.8525299244729507" /><vType id="vType_car_15.75571375841121" accel="1.0" decel="5.0" sigma="0.0" length="4.5" maxSpeed="4.376587155114224" /><vType id="vType_car_10.693067467990288" accel="1.0" decel="5.0" sigma="0.0" length="4.5" maxSpeed="2.9702965188861907" /><vType id="vType_car_2.7406805450926135" accel="1.0" decel="5.0" sigma="0.0" length="4.5" maxSpeed="0.7613001514146148" /><vType id="vType_car_18.612572120182037" accel="1.0" decel="5.0" sigma="0.0" length="4.5" maxSpeed="5.170158922272788" /><vType id="vType_car_16.330797133351293" accel="1.0" decel="5.0" sigma="0.0" length="4.5" maxSpeed="4.536332537042026" /><vType id="vType_car_2.715755620904047" accel="1.0" decel="5.0" sigma="0.0" length="4.5" maxSpeed="0.7543765613622353" /><vType id="vType_car_5.352251022344027" accel="1.0" decel="5.0" sigma="0.0" length="4.5" maxSpeed="1.486736395095563" /><vType id="vType_car_38.23448445818779" accel="1.0" decel="5.0" sigma="0.0" length="4.5" maxSpeed="10.620690127274385" /><vType id="vType_car_44.417118267453" accel="1.0" decel="5.0" sigma="0.0" length="4.5" maxSpeed="12.338088407625833" /><vType id="vType_car_4.983309767574077" accel="1.0" decel="5.0" sigma="0.0" length="4.5" maxSpeed="1.3842527132150215" /><vType id="vType_truck_14.59582834426581" accel="1.0" decel="5.0" sigma="0.0" length="8" maxSpeed="4.054396762296058" /><vType id="vType_car_19.252144524910655" accel="1.0" decel="5.0" sigma="0.0" length="4.5" maxSpeed="5.347817923586293" /><vType id="vType_car_64.42837542438193" accel="1.0" decel="5.0" sigma="0.0" length="4.5" maxSpeed="17.896770951217203" /><vType id="vType_car_11.080940807742136" accel="1.0" decel="5.0" sigma="0.0" length="4.5" maxSpeed="3.0780391132617044" /><vType id="vType_bus_55.460162703817154" accel="1.0" decel="5.0" sigma="0.0" length="13" maxSpeed="15.40560075106032" /><vType id="vType_truck_12.175206167187055" accel="1.0" decel="5.0" sigma="0.0" length="8" maxSpeed="3.382001713107515" /><vType id="vType_car_20.688667600066818" accel="1.0" decel="5.0" sigma="0.0" length="4.5" maxSpeed="5.746852111129671" /><vType id="vType_car_3.839856936385263" accel="1.0" decel="5.0" sigma="0.0" length="4.5" maxSpeed="1.066626926773684" /><vType id="vType_car_52.590932358144464" accel="1.0" decel="5.0" sigma="0.0" length="4.5" maxSpeed="14.608592321706794" /><vType id="vType_car_21.591210195049424" accel="1.0" decel="5.0" sigma="0.0" length="4.5" maxSpeed="5.997558387513728" /><vType id="vType_car_3.3222065117160517" accel="1.0" decel="5.0" sigma="0.0" length="4.5" maxSpeed="0.9228351421433477" /><vType id="vType_car_4.200888915151243" accel="1.0" decel="5.0" sigma="0.0" length="4.5" maxSpeed="1.1669135875420118" /><vType id="vType_car_50.24193119868995" accel="1.0" decel="5.0" sigma="0.0" length="4.5" maxSpeed="13.956091999636095" /><vType id="vType_car_48.683114466617" accel="1.0" decel="5.0" sigma="0.0" length="4.5" maxSpeed="13.523087351838054" /><vType id="vType_car_40.55288116948618" accel="1.0" decel="5.0" sigma="0.0" length="4.5" maxSpeed="11.264689213746161" /><vType id="vType_car_43.43884432885108" accel="1.0" decel="5.0" sigma="0.0" length="4.5" maxSpeed="12.066345646903079" /><vType id="vType_car_41.864597332672" accel="1.0" decel="5.0" sigma="0.0" length="4.5" maxSpeed="11.629054814631111" /><vType id="vType_car_51.54044130851792" accel="1.0" decel="5.0" sigma="0.0" length="4.5" maxSpeed="14.316789252366089" /><vType id="vType_car_41.46831471023728" accel="1.0" decel="5.0" sigma="0.0" length="4.5" maxSpeed="11.518976308399244" /><vType id="vType_car_47.44843468214016" accel="1.0" decel="5.0" sigma="0.0" length="4.5" maxSpeed="13.180120745038932" /><vType id="vType_car_13.271016680641077" accel="1.0" decel="5.0" sigma="0.0" length="4.5" maxSpeed="3.6863935224002993" /><vType id="vType_car_37.869336276254614" accel="1.0" decel="5.0" sigma="0.0" length="4.5" maxSpeed="10.519260076737392" /><vType id="vType_car_8.53238060218436" accel="1.0" decel="5.0" sigma="0.0" length="4.5" maxSpeed="2.370105722828989" /><vType id="vType_car_13.728805146617514" accel="1.0" decel="5.0" sigma="0.0" length="4.5" maxSpeed="3.8135569851715316" /><vType id="vType_car_22.892416250952678" accel="1.0" decel="5.0" sigma="0.0" length="4.5" maxSpeed="6.359004514153521" /><vType id="vType_car_2.705087291260242" accel="1.0" decel="5.0" sigma="0.0" length="4.5" maxSpeed="0.7514131364611782" /><vType id="vType_car_0.3523732129404788" accel="1.0" decel="5.0" sigma="0.0" length="4.5" maxSpeed="0.09788144803902188" /><vType id="vType_car_5.24897885502884" accel="1.0" decel="5.0" sigma="0.0" length="4.5" maxSpeed="1.4580496819524555" /><vType id="vType_car_14.515116260206984" accel="1.0" decel="5.0" sigma="0.0" length="4.5" maxSpeed="4.031976738946384" /><vType id="vType_car_13.227012306353757" accel="1.0" decel="5.0" sigma="0.0" length="4.5" maxSpeed="3.6741700850982655" /><vType id="vType_car_36.34378775504935" accel="1.0" decel="5.0" sigma="0.0" length="4.5" maxSpeed="10.095496598624818" /><vType id="vType_car_15.72367483517337" accel="1.0" decel="5.0" sigma="0.0" length="4.5" maxSpeed="4.367687454214825" /><vType id="vType_car_3.846799651515488" accel="1.0" decel="5.0" sigma="0.0" length="4.5" maxSpeed="1.0685554587543022" /><vType id="vType_car_14.860876481958954" accel="1.0" decel="5.0" sigma="0.0" length="4.5" maxSpeed="4.128021244988598" /><vType id="vType_car_16.248922175184312" accel="1.0" decel="5.0" sigma="0.0" length="4.5" maxSpeed="4.513589493106753" /><vType id="vType_car_39.18491155935701" accel="1.0" decel="5.0" sigma="0.0" length="4.5" maxSpeed="10.884697655376948" /><vType id="vType_car_10.217523707971024" accel="1.0" decel="5.0" sigma="0.0" length="4.5" maxSpeed="2.838201029991951" /><vType id="vType_car_10.939770444111698" accel="1.0" decel="5.0" sigma="0.0" length="4.5" maxSpeed="3.0388251233643606" /><vType id="vType_car_13.410512272168003" accel="1.0" decel="5.0" sigma="0.0" length="4.5" maxSpeed="3.725142297824445" /><vType id="vType_car_27.99597639185781" accel="1.0" decel="5.0" sigma="0.0" length="4.5" maxSpeed="7.776660108849391" /><vType id="vType_car_2.807695104736989" accel="1.0" decel="5.0" sigma="0.0" length="4.5" maxSpeed="0.7799153068713859" /><vType id="vType_car_33.111593924278836" accel="1.0" decel="5.0" sigma="0.0" length="4.5" maxSpeed="9.197664978966342" /><vType id="vType_car_5.369688789049396" accel="1.0" decel="5.0" sigma="0.0" length="4.5" maxSpeed="1.4915802191803877" /><vType id="vType_car_19.91346082673622" accel="1.0" decel="5.0" sigma="0.0" length="4.5" maxSpeed="5.531516896315616" /><vType id="vType_car_31.81278811102872" accel="1.0" decel="5.0" sigma="0.0" length="4.5" maxSpeed="8.836885586396866" /><vType id="vType_car_22.360438334461303" accel="1.0" decel="5.0" sigma="0.0" length="4.5" maxSpeed="6.211232870683695" /><vType id="vType_car_29.397625341017193" accel="1.0" decel="5.0" sigma="0.0" length="4.5" maxSpeed="8.166007039171442" /><vType id="vType_car_3.4985414271936968" accel="1.0" decel="5.0" sigma="0.0" length="4.5" maxSpeed="0.9718170631093602" /><vType id="vType_car_5.8635656257032425" accel="1.0" decel="5.0" sigma="0.0" length="4.5" maxSpeed="1.6287682293620118" /><vType id="vType_car_43.59211862188405" accel="1.0" decel="5.0" sigma="0.0" length="4.5" maxSpeed="12.108921839412234" /><vType id="vType_car_3.8483196013307137" accel="1.0" decel="5.0" sigma="0.0" length="4.5" maxSpeed="1.0689776670363094" /><vType id="vType_car_4.709936577477395" accel="1.0" decel="5.0" sigma="0.0" length="4.5" maxSpeed="1.3083157159659429" /><vType id="vType_car_10.90139334661255" accel="1.0" decel="5.0" sigma="0.0" length="4.5" maxSpeed="3.028164818503486" /><vType id="vType_car_36.422383020334166" accel="1.0" decel="5.0" sigma="0.0" length="4.5" maxSpeed="10.11732861675949" /><vType id="vType_car_1.1745773764682628" accel="1.0" decel="5.0" sigma="0.0" length="4.5" maxSpeed="0.32627149346340634" /><vType id="vType_car_4.967006194097327" accel="1.0" decel="5.0" sigma="0.0" length="4.5" maxSpeed="1.3797239428048131" /><vType id="vType_car_3.766995069099671" accel="1.0" decel="5.0" sigma="0.0" length="4.5" maxSpeed="1.046387519194353" /><vType id="vType_car_18.97587825303979" accel="1.0" decel="5.0" sigma="0.0" length="4.5" maxSpeed="5.271077292511053" /><vType id="vType_car_39.396522879245964" accel="1.0" decel="5.0" sigma="0.0" length="4.5" maxSpeed="10.943478577568323" /><vType id="vType_car_39.48693890134539" accel="1.0" decel="5.0" sigma="0.0" length="4.5" maxSpeed="10.968594139262608" /><vType id="vType_car_4.5131640019758095" accel="1.0" decel="5.0" sigma="0.0" length="4.5" maxSpeed="1.2536566672155025" /><vType id="vType_bus_36.889928082412446" accel="1.0" decel="5.0" sigma="0.0" length="13" maxSpeed="10.247202245114568" /><vType id="vType_car_24.06511639091726" accel="1.0" decel="5.0" sigma="0.0" length="4.5" maxSpeed="6.6847545530325725" /><vType id="vType_car_30.16031952159422" accel="1.0" decel="5.0" sigma="0.0" length="4.5" maxSpeed="8.377866533776173" /><vType id="vType_car_12.183162176606137" accel="1.0" decel="5.0" sigma="0.0" length="4.5" maxSpeed="3.384211715723927" /><vType id="vType_car_11.149875692947026" accel="1.0" decel="5.0" sigma="0.0" length="4.5" maxSpeed="3.097187692485285" /><vType id="vType_car_18.86456584367963" accel="1.0" decel="5.0" sigma="0.0" length="4.5" maxSpeed="5.2401571787998975" /><vType id="vType_car_4.94492733156739" accel="1.0" decel="5.0" sigma="0.0" length="4.5" maxSpeed="1.3735909254353862" /><vType id="vType_car_5.213320733415843" accel="1.0" decel="5.0" sigma="0.0" length="4.5" maxSpeed="1.4481446481710676" /><vType id="vType_car_7.474964651361116" accel="1.0" decel="5.0" sigma="0.0" length="4.5" maxSpeed="2.0763790698225324" /><vType id="vType_car_18.866124528605646" accel="1.0" decel="5.0" sigma="0.0" length="4.5" maxSpeed="5.240590146834902" /><vType id="vType_car_50.819987494275495" accel="1.0" decel="5.0" sigma="0.0" length="4.5" maxSpeed="14.116663192854304" /><vType id="vType_car_57.362203163292946" accel="1.0" decel="5.0" sigma="0.0" length="4.5" maxSpeed="15.933945323136928" /><vType id="vType_car_17.796589234343816" accel="1.0" decel="5.0" sigma="0.0" length="4.5" maxSpeed="4.943497009539949" /><vType id="vType_car_11.143019393234315" accel="1.0" decel="5.0" sigma="0.0" length="4.5" maxSpeed="3.09528316478731" /><vType id="vType_car_41.67981173296994" accel="1.0" decel="5.0" sigma="0.0" length="4.5" maxSpeed="11.577725481380538" /><vType id="vType_car_24.032707551254624" accel="1.0" decel="5.0" sigma="0.0" length="4.5" maxSpeed="6.6757520975707285" /><vType id="vType_car_13.739702437591909" accel="1.0" decel="5.0" sigma="0.0" length="4.5" maxSpeed="3.8165840104421966" /><vType id="vType_bus_41.46286163080263" accel="1.0" decel="5.0" sigma="0.0" length="13" maxSpeed="11.51746156411184" /><vType id="vType_car_67.05923574516089" accel="1.0" decel="5.0" sigma="0.0" length="4.5" maxSpeed="18.627565484766915" /><vType id="vType_car_42.69540811699039" accel="1.0" decel="5.0" sigma="0.0" length="4.5" maxSpeed="11.859835588052887" /><vType id="vType_car_3.978794458677551" accel="1.0" decel="5.0" sigma="0.0" length="4.5" maxSpeed="1.1052206829659865" /><vType id="vType_car_41.58109666224363" accel="1.0" decel="5.0" sigma="0.0" length="4.5" maxSpeed="11.550304628401008" /><vType id="vType_car_47.78160447420862" accel="1.0" decel="5.0" sigma="0.0" length="4.5" maxSpeed="13.272667909502394" /><vType id="vType_car_20.473207161148665" accel="1.0" decel="5.0" sigma="0.0" length="4.5" maxSpeed="5.687001989207962" /><vType id="vType_car_4.5720551817229955" accel="1.0" decel="5.0" sigma="0.0" length="4.5" maxSpeed="1.2700153282563875" /><vType id="vType_car_7.616122927597074" accel="1.0" decel="5.0" sigma="0.0" length="4.5" maxSpeed="2.1155897021102983" /><vType id="vType_car_34.21439094329442" accel="1.0" decel="5.0" sigma="0.0" length="4.5" maxSpeed="9.50399748424845" /><vType id="vType_car_20.36680910271155" accel="1.0" decel="5.0" sigma="0.0" length="4.5" maxSpeed="5.65744697297543" /><vType id="vType_car_47.289597273095914" accel="1.0" decel="5.0" sigma="0.0" length="4.5" maxSpeed="13.135999242526642" /><vType id="vType_car_42.81548497156765" accel="1.0" decel="5.0" sigma="0.0" length="4.5" maxSpeed="11.893190269879902" /><vType id="vType_car_27.904558135281555" accel="1.0" decel="5.0" sigma="0.0" length="4.5" maxSpeed="7.751266148689321" /><vType id="vType_car_39.56626971710455" accel="1.0" decel="5.0" sigma="0.0" length="4.5" maxSpeed="10.990630476973484" /><vType id="vType_car_43.01139199701593" accel="1.0" decel="5.0" sigma="0.0" length="4.5" maxSpeed="11.94760888805998" /><vType id="vType_car_41.84799499353901" accel="1.0" decel="5.0" sigma="0.0" length="4.5" maxSpeed="11.624443053760837" /><vType id="vType_car_49.98188239586789" accel="1.0" decel="5.0" sigma="0.0" length="4.5" maxSpeed="13.883856221074414" /><vType id="vType_car_48.618385950389055" accel="1.0" decel="5.0" sigma="0.0" length="4.5" maxSpeed="13.505107208441403" /><vType id="vType_car_48.229929056318" accel="1.0" decel="5.0" sigma="0.0" length="4.5" maxSpeed="13.397202515643889" /><vType id="vType_car_49.86732013526048" accel="1.0" decel="5.0" sigma="0.0" length="4.5" maxSpeed="13.852033370905687" /><vType id="vType_car_4.630495463403366" accel="1.0" decel="5.0" sigma="0.0" length="4.5" maxSpeed="1.2862487398342684" /><vType id="vType_car_48.72102340165998" accel="1.0" decel="5.0" sigma="0.0" length="4.5" maxSpeed="13.533617611572215" /><vType id="vType_car_4.362781137881923" accel="1.0" decel="5.0" sigma="0.0" length="4.5" maxSpeed="1.2118836494116452" /><vType id="vType_car_55.38139066359854" accel="1.0" decel="5.0" sigma="0.0" length="4.5" maxSpeed="15.38371962877737" /><vType id="vType_car_35.47047934837051" accel="1.0" decel="5.0" sigma="0.0" length="4.5" maxSpeed="9.852910930102919" /><vType id="vType_car_84.6053569615308" accel="1.0" decel="5.0" sigma="0.0" length="4.5" maxSpeed="23.501488044869667" /><vType id="vType_car_66.87421491445494" accel="1.0" decel="5.0" sigma="0.0" length="4.5" maxSpeed="18.576170809570815" /><vType id="vType_car_3.9831112130984763" accel="1.0" decel="5.0" sigma="0.0" length="4.5" maxSpeed="1.1064197814162433" /><vType id="vType_car_3.5410669514656936" accel="1.0" decel="5.0" sigma="0.0" length="4.5" maxSpeed="0.9836297087404704" /><vType id="vType_car_35.62056371218244" accel="1.0" decel="5.0" sigma="0.0" length="4.5" maxSpeed="9.894601031161788" /><vType id="vType_car_41.08333071805895" accel="1.0" decel="5.0" sigma="0.0" length="4.5" maxSpeed="11.412036310571931" /><vType id="vType_car_15.4833410453476" accel="1.0" decel="5.0" sigma="0.0" length="4.5" maxSpeed="4.300928068152111" /><vType id="vType_car_10.28782793552455" accel="1.0" decel="5.0" sigma="0.0" length="4.5" maxSpeed="2.8577299820901527" /><vType id="vType_car_6.188904770798086" accel="1.0" decel="5.0" sigma="0.0" length="4.5" maxSpeed="1.7191402141105794" /><vType id="vType_car_53.694819810028555" accel="1.0" decel="5.0" sigma="0.0" length="4.5" maxSpeed="14.91522772500793" /><vType id="vType_car_4.544434354912399" accel="1.0" decel="5.0" sigma="0.0" length="4.5" maxSpeed="1.2623428763645552" /><vType id="vType_car_19.133095587674198" accel="1.0" decel="5.0" sigma="0.0" length="4.5" maxSpeed="5.314748774353943" /><vType id="vType_car_13.300129574866599" accel="1.0" decel="5.0" sigma="0.0" length="4.5" maxSpeed="3.694480437462944" /><vType id="vType_car_15.978743573071233" accel="1.0" decel="5.0" sigma="0.0" length="4.5" maxSpeed="4.438539881408675" /><vType id="vType_car_66.74980515450741" accel="1.0" decel="5.0" sigma="0.0" length="4.5" maxSpeed="18.541612542918724" /><vType id="vType_car_5.1584908852030615" accel="1.0" decel="5.0" sigma="0.0" length="4.5" maxSpeed="1.4329141347786283" /><vType id="vType_car_36.11180491599603" accel="1.0" decel="5.0" sigma="0.0" length="4.5" maxSpeed="10.03105692111001" /><vType id="vType_car_35.335298467816095" accel="1.0" decel="5.0" sigma="0.0" length="4.5" maxSpeed="9.815360685504471" /><route id="route_north_to_east" edges="north_to_center center_to_east" /><route id="route_north_to_south" edges="north_to_center center_to_south" /><route id="route_north_to_west" edges="north_to_center center_to_west" /><route id="route_east_to_west" edges="east_to_center center_to_west" /><route id="route_east_to_south" edges="east_to_center center_to_south" /><route id="route_east_to_north" edges="east_to_center center_to_north" /><route id="route_south_to_west" edges="south_to_center center_to_west" /><route id="route_south_to_north" edges="south_to_center center_to_north" /><route id="route_south_to_east" edges="south_to_center center_to_east" /><route id="route_west_to_south" edges="west_to_center center_to_south" /><route id="route_west_to_north" edges="west_to_center center_to_north" /><route id="route_west_to_east" edges="west_to_center center_to_east" /><vehicle id="veh269" type="vType_car_12.769485321842367" route="route_west_to_north" depart="0.04" /><vehicle id="veh290" type="vType_car_21.133750700072916" route="route_west_to_east" depart="0.04" /><vehicle id="veh291" type="vType_car_21.637491362267532" route="route_west_to_east" depart="0.04" /><vehicle id="veh293" type="vType_car_12.569340690353348" route="route_west_to_north" depart="0.04" /><vehicle id="veh302" type="vType_car_49.882581277842775" route="route_north_to_south" depart="0.04" /><vehicle id="veh305" type="vType_car_25.4545842974708" route="route_north_to_west" depart="0.04" /><vehicle id="veh306" type="vType_car_17.417370913483094" route="route_north_to_west" depart="0.04" /><vehicle id="veh308" type="vType_car_17.890816287926288" route="route_west_to_east" depart="0.04" /><vehicle id="veh303" type="vType_car_27.94947614026747" route="route_south_to_north" depart="0.04" /><vehicle id="veh311" type="vType_car_35.935248607802485" route="route_south_to_north" depart="1.36" /><vehicle id="veh312" type="vType_car_16.555667614176333" route="route_north_to_west" depart="1.36" /><vehicle id="veh307" type="vType_bus_57.43166276386332" route="route_north_to_south" depart="1.72" /><vehicle id="veh314" type="vType_bus_27.018101423394246" route="route_south_to_north" depart="3.15" /><vehicle id="veh321" type="vType_car_20.874534909541385" route="route_south_to_east" depart="4.68" /><vehicle id="veh322" type="vType_car_27.02764087185215" route="route_north_to_south" depart="4.93" /><vehicle id="veh323" type="vType_car_35.26440172206202" route="route_south_to_north" depart="5.44" /><vehicle id="veh325" type="vType_car_19.965104496169666" route="route_west_to_east" depart="5.58" /><vehicle id="veh326" type="vType_car_36.118636273749715" route="route_south_to_north" depart="7.44" /><vehicle id="veh327" type="vType_car_16.385018818207826" route="route_west_to_north" depart="7.90" /><vehicle id="veh329" type="vType_car_33.24986628135661" route="route_south_to_north" depart="8.65" /><vehicle id="veh332" type="vType_car_30.105783922853597" route="route_south_to_north" depart="10.44" /><vehicle id="veh336" type="vType_car_28.642747809941145" route="route_south_to_north" depart="16.41" /><vehicle id="veh338" type="vType_car_9.709115316165635" route="route_east_to_north" depart="17.06" /><vehicle id="veh340" type="vType_car_13.968209124179992" route="route_north_to_east" depart="19.31" /><vehicle id="veh346" type="vType_car_38.63555321777506" route="route_south_to_west" depart="22.31" /><vehicle id="veh352" type="vType_car_29.37718121668006" route="route_west_to_east" depart="28.50" /><vehicle id="veh362" type="vType_car_33.19480301111806" route="route_west_to_south" depart="33.50" /><vehicle id="veh366" type="vType_car_25.190150766184775" route="route_west_to_north" depart="34.51" /><vehicle id="veh369" type="vType_car_28.901205496818896" route="route_west_to_east" depart="35.08" /><vehicle id="veh373" type="vType_car_36.093008075932445" route="route_west_to_east" depart="36.79" /><vehicle id="veh374" type="vType_car_11.7820883043491" route="route_south_to_north" depart="37.04" /><vehicle id="veh376" type="vType_car_21.86124923281736" route="route_west_to_south" depart="38.22" /><vehicle id="veh377" type="vType_car_31.162952568453786" route="route_west_to_north" depart="38.73" /><vehicle id="veh380" type="vType_car_17.2701041391738" route="route_north_to_west" depart="39.01" /><vehicle id="veh381" type="vType_car_39.779702529307215" route="route_west_to_east" depart="39.08" /><vehicle id="veh384" type="vType_car_21.444479160461444" route="route_west_to_east" depart="40.66" /><vehicle id="veh385" type="vType_car_41.96760879694133" route="route_west_to_east" depart="40.69" /><vehicle id="veh386" type="vType_car_27.08753873757135" route="route_west_to_north" depart="40.69" /><vehicle id="veh387" type="vType_car_48.03333708617188" route="route_west_to_east" depart="42.37" /><vehicle id="veh390" type="vType_car_24.49713540717233" route="route_west_to_east" depart="43.23" /><vehicle id="veh391