<?xml version='1.0' encoding='utf-8'?>
<routes><vType id="vType_car_15.502652090223638" accel="1.0" decel="5.0" sigma="0.0" length="4.5" maxSpeed="4.306292247284344" /><vType id="vType_car_14.942122535138807" accel="1.0" decel="5.0" sigma="0.0" length="4.5" maxSpeed="4.1505895930941135" /><vType id="vType_car_12.02283537002996" accel="1.0" decel="5.0" sigma="0.0" length="4.5" maxSpeed="3.3396764916749886" /><vType id="vType_car_13.574515107676559" accel="1.0" decel="5.0" sigma="0.0" length="4.5" maxSpeed="3.770698641021266" /><vType id="vType_car_13.405929251812063" accel="1.0" decel="5.0" sigma="0.0" length="4.5" maxSpeed="3.723869236614462" /><vType id="vType_car_13.164501512374287" accel="1.0" decel="5.0" sigma="0.0" length="4.5" maxSpeed="3.656805975659524" /><vType id="vType_car_17.026539574639287" accel="1.0" decel="5.0" sigma="0.0" length="4.5" maxSpeed="4.729594326288691" /><vType id="vType_car_4.322970084654278" accel="1.0" decel="5.0" sigma="0.0" length="4.5" maxSpeed="1.2008250235150773" /><vType id="vType_car_15.52851868406082" accel="1.0" decel="5.0" sigma="0.0" length="4.5" maxSpeed="4.313477412239116" /><vType id="vType_car_31.267983038444374" accel="1.0" decel="5.0" sigma="0.0" length="4.5" maxSpeed="8.685550844012326" /><vType id="vType_car_12.714933567737141" accel="1.0" decel="5.0" sigma="0.0" length="4.5" maxSpeed="3.5319259910380945" /><vType id="vType_car_13.3402047052755" accel="1.0" decel="5.0" sigma="0.0" length="4.5" maxSpeed="3.705612418132083" /><vType id="vType_car_14.646920884709239" accel="1.0" decel="5.0" sigma="0.0" length="4.5" maxSpeed="4.0685891346414556" /><vType id="vType_car_19.596898067479373" accel="1.0" decel="5.0" sigma="0.0" length="4.5" maxSpeed="5.443582796522048" /><vType id="vType_car_18.14085640712893" accel="1.0" decel="5.0" sigma="0.0" length="4.5" maxSpeed="5.0391267797580355" /><vType id="vType_car_33.66155771595151" accel="1.0" decel="5.0" sigma="0.0" length="4.5" maxSpeed="9.35043269887542" /><vType id="vType_car_20.78420800702212" accel="1.0" decel="5.0" sigma="0.0" length="4.5" maxSpeed="5.7733911130617" /><vType id="vType_car_10.06534009549127" accel="1.0" decel="5.0" sigma="0.0" length="4.5" maxSpeed="2.7959278043031306" /><vType id="vType_car_3.8316205362380655" accel="1.0" decel="5.0" sigma="0.0" length="4.5" maxSpeed="1.064339037843907" /><vType id="vType_car_3.4832913965800594" accel="1.0" decel="5.0" sigma="0.0" length="4.5" maxSpeed="0.9675809434944609" /><vType id="vType_car_3.4832913965800585" accel="1.0" decel="5.0" sigma="0.0" length="4.5" maxSpeed="0.9675809434944607" /><vType id="vType_car_1.821802728187862" accel="1.0" decel="5.0" sigma="0.0" length="4.5" maxSpeed="0.5060563133855172" /><vType id="vType_car_2.999500924832829" accel="1.0" decel="5.0" sigma="0.0" length="4.5" maxSpeed="0.8331947013424524" /><vType id="vType_car_4.204704665660549" accel="1.0" decel="5.0" sigma="0.0" length="4.5" maxSpeed="1.1679735182390414" /><vType id="vType_car_16.35604087041486" accel="1.0" decel="5.0" sigma="0.0" length="4.5" maxSpeed="4.54334468622635" /><vType id="vType_car_15.012370267962588" accel="1.0" decel="5.0" sigma="0.0" length="4.5" maxSpeed="4.17010285221183" /><vType id="vType_car_0.4354114245725074" accel="1.0" decel="5.0" sigma="0.0" length="4.5" maxSpeed="0.12094761793680761" /><vType id="vType_car_16.019890128359382" accel="1.0" decel="5.0" sigma="0.0" length="4.5" maxSpeed="4.449969480099829" /><vType id="vType_car_16.716542520062774" accel="1.0" decel="5.0" sigma="0.0" length="4.5" maxSpeed="4.64348403335077" /><vType id="vType_car_19.84638050720141" accel="1.0" decel="5.0" sigma="0.0" length="4.5" maxSpeed="5.512883474222614" /><vType id="vType_car_13.737599195636065" accel="1.0" decel="5.0" sigma="0.0" length="4.5" maxSpeed="3.8159997765655733" /><vType id="vType_car_21.64883886020716" accel="1.0" decel="5.0" sigma="0.0" length="4.5" maxSpeed="6.013566350057545" /><vType id="vType_car_15.6961264612103" accel="1.0" decel="5.0" sigma="0.0" length="4.5" maxSpeed="4.360035128113972" /><vType id="vType_car_20.357291646566225" accel="1.0" decel="5.0" sigma="0.0" length="4.5" maxSpeed="5.654803235157284" /><vType id="vType_car_19.652287329764256" accel="1.0" decel="5.0" sigma="0.0" length="4.5" maxSpeed="5.458968702712293" /><vType id="vType_car_3.9404700463307063" accel="1.0" decel="5.0" sigma="0.0" length="4.5" maxSpeed="1.0945750128696405" /><vType id="vType_car_24.78926499553618" accel="1.0" decel="5.0" sigma="0.0" length="4.5" maxSpeed="6.885906943204494" /><vType id="vType_truck_36.6883904081581" accel="1.0" decel="5.0" sigma="0.0" length="8" maxSpeed="10.191219557821695" /><vType id="vType_car_28.42634966295274" accel="1.0" decel="5.0" sigma="0.0" length="4.5" maxSpeed="7.896208239709095" /><vType id="vType_car_19.202237073504318" accel="1.0" decel="5.0" sigma="0.0" length="4.5" maxSpeed="5.333954742640088" /><vType id="vType_car_7.285545957511206" accel="1.0" decel="5.0" sigma="0.0" length="4.5" maxSpeed="2.023762765975335" /><vType id="vType_car_26.971151019951336" accel="1.0" decel="5.0" sigma="0.0" length="4.5" maxSpeed="7.491986394430926" /><vType id="vType_car_30.714371288479324" accel="1.0" decel="5.0" sigma="0.0" length="4.5" maxSpeed="8.531769802355367" /><vType id="vType_car_3.36933429116633" accel="1.0" decel="5.0" sigma="0.0" length="4.5" maxSpeed="0.9359261919906472" /><vType id="vType_car_18.852938678310977" accel="1.0" decel="5.0" sigma="0.0" length="4.5" maxSpeed="5.236927410641938" /><vType id="vType_truck_66.6847913429561" accel="1.0" decel="5.0" sigma="0.0" length="8" maxSpeed="18.52355315082114" /><vType id="vType_car_28.300332548467395" accel="1.0" decel="5.0" sigma="0.0" length="4.5" maxSpeed="7.861203485685388" /><vType id="vType_car_27.993018331720222" accel="1.0" decel="5.0" sigma="0.0" length="4.5" maxSpeed="7.775838425477839" /><vType id="vType_car_21.726762445836727" accel="1.0" decel="5.0" sigma="0.0" length="4.5" maxSpeed="6.035211790510202" /><vType id="vType_car_17.56784080626703" accel="1.0" decel="5.0" sigma="0.0" length="4.5" maxSpeed="4.879955779518619" /><vType id="vType_car_17.498715034226315" accel="1.0" decel="5.0" sigma="0.0" length="4.5" maxSpeed="4.860754176173976" /><vType id="vType_car_33.928749597045766" accel="1.0" decel="5.0" sigma="0.0" length="4.5" maxSpeed="9.424652665846045" /><vType id="vType_car_26.183633072064133" accel="1.0" decel="5.0" sigma="0.0" length="4.5" maxSpeed="7.273231408906703" /><vType id="vType_car_24.9244040202383" accel="1.0" decel="5.0" sigma="0.0" length="4.5" maxSpeed="6.923445561177305" /><vType id="vType_car_3.061563632937388" accel="1.0" decel="5.0" sigma="0.0" length="4.5" maxSpeed="0.8504343424826077" /><vType id="vType_car_30.970811013408802" accel="1.0" decel="5.0" sigma="0.0" length="4.5" maxSpeed="8.603003059280223" /><vType id="vType_car_47.96455304112897" accel="1.0" decel="5.0" sigma="0.0" length="4.5" maxSpeed="13.323486955869159" /><vType id="vType_car_28.482438365962338" accel="1.0" decel="5.0" sigma="0.0" length="4.5" maxSpeed="7.911788434989538" /><vType id="vType_car_21.991475655735865" accel="1.0" decel="5.0" sigma="0.0" length="4.5" maxSpeed="6.108743237704407" /><vType id="vType_car_29.815666674975898" accel="1.0" decel="5.0" sigma="0.0" length="4.5" maxSpeed="8.28212963193775" /><vType id="vType_car_40.07556768301109" accel="1.0" decel="5.0" sigma="0.0" length="4.5" maxSpeed="11.132102134169747" /><vType id="vType_car_8.017173645419998" accel="1.0" decel="5.0" sigma="0.0" length="4.5" maxSpeed="2.2269926792833328" /><vType id="vType_car_6.966582793160118" accel="1.0" decel="5.0" sigma="0.0" length="4.5" maxSpeed="1.9351618869889216" /><vType id="vType_car_8.29486147621506" accel="1.0" decel="5.0" sigma="0.0" length="4.5" maxSpeed="2.3041281878375166" /><vType id="vType_car_19.9519932195093" accel="1.0" decel="5.0" sigma="0.0" length="4.5" maxSpeed="5.542220338752584" /><vType id="vType_car_25.625010140770794" accel="1.0" decel="5.0" sigma="0.0" length="4.5" maxSpeed="7.118058372436331" /><vType id="vType_car_4.166622603274811" accel="1.0" decel="5.0" sigma="0.0" length="4.5" maxSpeed="1.1573951675763363" /><vType id="vType_car_17.21289557995218" accel="1.0" decel="5.0" sigma="0.0" length="4.5" maxSpeed="4.781359883320049" /><vType id="vType_car_23.19627810987758" accel="1.0" decel="5.0" sigma="0.0" length="4.5" maxSpeed="6.443410586077105" /><vType id="vType_car_36.4723392436088" accel="1.0" decel="5.0" sigma="0.0" length="4.5" maxSpeed="10.131205345446888" /><vType id="vType_car_10.92677668172567" accel="1.0" decel="5.0" sigma="0.0" length="4.5" maxSpeed="3.0352157449237973" /><vType id="vType_car_34.839751276676125" accel="1.0" decel="5.0" sigma="0.0" length="4.5" maxSpeed="9.67770868796559" /><vType id="vType_car_40.03614521423498" accel="1.0" decel="5.0" sigma="0.0" length="4.5" maxSpeed="11.121151448398605" /><vType id="vType_car_11.093709013539172" accel="1.0" decel="5.0" sigma="0.0" length="4.5" maxSpeed="3.0815858370942144" /><vType id="vType_car_13.770538432606665" accel="1.0" decel="5.0" sigma="0.0" length="4.5" maxSpeed="3.8251495646129623" /><vType id="vType_car_40.396135198913775" accel="1.0" decel="5.0" sigma="0.0" length="4.5" maxSpeed="11.221148666364938" /><vType id="vType_car_14.567160855880644" accel="1.0" decel="5.0" sigma="0.0" length="4.5" maxSpeed="4.046433571077957" /><vType id="vType_car_11.986418965365063" accel="1.0" decel="5.0" sigma="0.0" length="4.5" maxSpeed="3.3295608237125176" /><vType id="vType_car_47.47315011139784" accel="1.0" decel="5.0" sigma="0.0" length="4.5" maxSpeed="13.186986142054955" /><vType id="vType_car_46.99143916414873" accel="1.0" decel="5.0" sigma="0.0" length="4.5" maxSpeed="13.053177545596869" /><vType id="vType_car_11.155304760247404" accel="1.0" decel="5.0" sigma="0.0" length="4.5" maxSpeed="3.09869576673539" /><vType id="vType_car_56.44703713936694" accel="1.0" decel="5.0" sigma="0.0" length="4.5" maxSpeed="15.679732538713038" /><vType id="vType_car_20.985670738016456" accel="1.0" decel="5.0" sigma="0.0" length="4.5" maxSpeed="5.829352982782349" /><vType id="vType_car_37.96928164626621" accel="1.0" decel="5.0" sigma="0.0" length="4.5" maxSpeed="10.547022679518392" /><vType id="vType_car_106.27209130364092" accel="1.0" decel="5.0" sigma="0.0" length="4.5" maxSpeed="29.520025362122478" /><vType id="vType_car_43.86749790580235" accel="1.0" decel="5.0" sigma="0.0" length="4.5" maxSpeed="12.185416084945098" /><vType id="vType_car_15.863678027087264" accel="1.0" decel="5.0" sigma="0.0" length="4.5" maxSpeed="4.406577229746462" /><vType id="vType_car_10.205809023818032" accel="1.0" decel="5.0" sigma="0.0" length="4.5" maxSpeed="2.8349469510605645" /><vType id="vType_car_11.86462209056395" accel="1.0" decel="5.0" sigma="0.0" length="4.5" maxSpeed="3.295728358489986" /><vType id="vType_car_8.851800296407303" accel="1.0" decel="5.0" sigma="0.0" length="4.5" maxSpeed="2.4588334156686953" /><vType id="vType_car_33.848729903597665" accel="1.0" decel="5.0" sigma="0.0" length="4.5" maxSpeed="9.402424973221573" /><vType id="vType_car_39.839806607358" accel="1.0" decel="5.0" sigma="0.0" length="4.5" maxSpeed="11.066612946488332" /><vType id="vType_car_37.62309625753335" accel="1.0" decel="5.0" sigma="0.0" length="4.5" maxSpeed="10.450860071537042" /><vType id="vType_car_19.92159384469586" accel="1.0" decel="5.0" sigma="0.0" length="4.5" maxSpeed="5.533776067971072" /><vType id="vType_car_41.56563859815525" accel="1.0" decel="5.0" sigma="0.0" length="4.5" maxSpeed="11.546010721709793" /><vType id="vType_car_65.60104194866463" accel="1.0" decel="5.0" sigma="0.0" length="4.5" maxSpeed="18.22251165240684" /><vType id="vType_car_12.978966645683208" accel="1.0" decel="5.0" sigma="0.0" length="4.5" maxSpeed="3.60526851268978" /><vType id="vType_car_15.42145683620272" accel="1.0" decel="5.0" sigma="0.0" length="4.5" maxSpeed="4.283738010056311" /><vType id="vType_car_49.50210208677381" accel="1.0" decel="5.0" sigma="0.0" length="4.5" maxSpeed="13.750583912992724" /><vType id="vType_car_21.68993764006225" accel="1.0" decel="5.0" sigma="0.0" length="4.5" maxSpeed="6.0249826777950695" /><vType id="vType_truck_3.4832913965800594" accel="1.0" decel="5.0" sigma="0.0" length="8" maxSpeed="0.9675809434944609" /><vType id="vType_car_12.905293726317767" accel="1.0" decel="5.0" sigma="0.0" length="4.5" maxSpeed="3.5848038128660464" /><vType id="vType_car_19.659988505374205" accel="1.0" decel="5.0" sigma="0.0" length="4.5" maxSpeed="5.4611079181595015" /><vType id="vType_car_52.0198756582104" accel="1.0" decel="5.0" sigma="0.0" length="4.5" maxSpeed="14.449965460614001" /><vType id="vType_car_5.936720014295532" accel="1.0" decel="5.0" sigma="0.0" length="4.5" maxSpeed="1.64908889285987" /><vType id="vType_car_11.959829099214554" accel="1.0" decel="5.0" sigma="0.0" length="4.5" maxSpeed="3.3221747497818206" /><vType id="vType_car_23.27007055108568" accel="1.0" decel="5.0" sigma="0.0" length="4.5" maxSpeed="6.463908486412689" /><vType id="vType_car_22.96670345090781" accel="1.0" decel="5.0" sigma="0.0" length="4.5" maxSpeed="6.379639847474392" /><vType id="vType_car_38.00239982619701" accel="1.0" decel="5.0" sigma="0.0" length="4.5" maxSpeed="10.556222173943615" /><vType id="vType_car_5.360241380468909" accel="1.0" decel="5.0" sigma="0.0" length="4.5" maxSpeed="1.4889559390191414" /><vType id="vType_car_6.4500008876844594" accel="1.0" decel="5.0" sigma="0.0" length="4.5" maxSpeed="1.791666913245683" /><vType id="vType_car_5.945010101819296" accel="1.0" decel="5.0" sigma="0.0" length="4.5" maxSpeed="1.6513916949498044" /><vType id="vType_car_6.03576263890471" accel="1.0" decel="5.0" sigma="0.0" length="4.5" maxSpeed="1.676600733029086" /><vType id="vType_car_6.357497141467116" accel="1.0" decel="5.0" sigma="0.0" length="4.5" maxSpeed="1.7659714281853098" /><vType id="vType_car_4.294329685711564" accel="1.0" decel="5.0" sigma="0.0" length="4.5" maxSpeed="1.1928693571421012" /><vType id="vType_car_4.908681285151001" accel="1.0" decel="5.0" sigma="0.0" length="4.5" maxSpeed="1.3635225792086114" /><vType id="vType_car_36.41027273896901" accel="1.0" decel="5.0" sigma="0.0" length="4.5" maxSpeed="10.113964649713614" /><vType id="vType_car_5.848250694531674" accel="1.0" decel="5.0" sigma="0.0" length="4.5" maxSpeed="1.624514081814354" /><vType id="vType_car_4.180957442766219" accel="1.0" decel="5.0" sigma="0.0" length="4.5" maxSpeed="1.1613770674350608" /><vType id="vType_car_2.8704901323669008" accel="1.0" decel="5.0" sigma="0.0" length="4.5" maxSpeed="0.7973583701019169" /><vType id="vType_car_18.264576704124696" accel="1.0" decel="5.0" sigma="0.0" length="4.5" maxSpeed="5.073493528923526" /><vType id="vType_car_15.889217667902567" accel="1.0" decel="5.0" sigma="0.0" length="4.5" maxSpeed="4.413671574417379" /><route id="route_north_to_east" edges="north_to_center center_to_east" /><route id="route_north_to_south" edges="north_to_center center_to_south" /><route id="route_north_to_west" edges="north_to_center center_to_west" /><route id="route_east_to_west" edges="east_to_center center_to_west" /><route id="route_east_to_south" edges="east_to_center center_to_south" /><route id="route_east_to_north" edges="east_to_center center_to_north" /><route id="route_south_to_west" edges="south_to_center center_to_west" /><route id="route_south_to_north" edges="south_to_center center_to_north" /><route id="route_south_to_east" edges="south_to_center center_to_east" /><route id="route_west_to_south" edges="west_to_center center_to_south" /><route id="route_west_to_north" edges="west_to_center center_to_north" /><route id="route_west_to_east" edges="west_to_center center_to_east" /><vehicle id="veh883" type="vType_car_15.502652090223638" route="route_south_to_north" depart="0.04" /><vehicle id="veh908" type="vType_car_14.942122535138807" route="route_north_to_south" depart="0.04" /><vehicle id="veh903" type="vType_car_12.02283537002996" route="route_north_to_south" depart="0.04" /><vehicle id="veh913" type="vType_car_13.574515107676559" route="route_north_to_east" depart="0.04" /><vehicle id="veh917" type="vType_car_13.405929251812063" route="route_north_to_east" depart="0.04" /><vehicle id="veh958" type="vType_car_13.164501512374287" route="route_north_to_east" depart="0.04" /><vehicle id="veh912" type="vType_car_17.026539574639287" route="route_north_to_south" depart="0.04" /><vehicle id="veh999" type="vType_car_15.52851868406082" route="route_west_to_east" depart="0.04" /><vehicle id="veh1003" type="vType_car_31.267983038444374" route="route_south_to_west" depart="0.04" /><vehicle id="veh1008" type="vType_car_12.714933567737141" route="route_west_to_east" depart="0.04" /><vehicle id="veh892" type="vType_car_14.646920884709239" route="route_south_to_north" depart="0.04" /><vehicle id="veh1025" type="vType_car_19.596898067479373" route="route_west_to_east" depart="0.04" /><vehicle id="veh1026" type="vType_car_18.14085640712893" route="route_east_to_south" depart="0.04" /><vehicle id="veh1029" type="vType_car_20.78420800702212" route="route_west_to_north" depart="0.04" /><vehicle id="veh1046" type="vType_car_16.35604087041486" route="route_north_to_east" depart="14.18" /><vehicle id="veh1052" type="vType_car_16.019890128359382" route="route_north_to_west" depart="20.22" /><vehicle id="veh1053" type="vType_car_16.716542520062774" route="route_south_to_north" depart="21.02" /><vehicle id="veh1055" type="vType_car_19.84638050720141" route="route_north_to_south" depart="21.52" /><vehicle id="veh1058" type="vType_car_21.64883886020716" route="route_north_to_south" depart="24.49" /><vehicle id="veh1059" type="vType_car_15.6961264612103" route="route_north_to_west" depart="26.26" /><vehicle id="veh1060" type="vType_car_20.357291646566225" route="route_north_to_south" depart="26.80" /><vehicle id="veh1063" type="vType_car_19.652287329764256" route="route_north_to_west" depart="29.37" /><vehicle id="veh1066" type="vType_car_24.78926499553618" route="route_north_to_south" depart="29.63" /><vehicle id="veh1069" type="vType_truck_36.6883904081581" route="route_south_to_north" depart="30.17" /><vehicle id="veh1070" type="vType_car_28.42634966295274" route="route_south_to_north" depart="31.04" /><vehicle id="veh1074" type="vType_car_19.202237073504318" route="route_north_to_west" depart="31.87" /><vehicle id="veh1077" type="vType_car_26.971151019951336" route="route_north_to_south" depart="32.23" /><vehicle id="veh1078" type="vType_car_30.714371288479324" route="route_south_to_north" depart="32.77" /><vehicle id="veh1080" type="vType_car_18.852938678310977" route="route_north_to_west" depart="33.86" /><vehicle id="veh1083" type="vType_car_28.300332548467395" route="route_north_to_south" depart="34.29" /><vehicle id="veh1089" type="vType_car_27.993018331720222" route="route_south_to_north" depart="35.52" /><vehicle id="veh1090" type="vType_car_21.726762445836727" route="route_west_to_east" depart="35.52" /><vehicle id="veh1094" type="vType_car_17.56784080626703" route="route_north_to_east" depart="36.50" /><vehicle id="veh1096" type="vType_car_17.498715034226315" route="route_north_to_west" depart="37.47" /><vehicle id="veh1097" type="vType_car_33.928749597045766" route="route_south_to_north" depart="37.69" /><vehicle id="veh1099" type="vType_car_26.183633072064133" route="route_north_to_south" depart="37.84" /><vehicle id="veh1102" type="vType_car_24.9244040202383" route="route_north_to_south" depart="39.57" /><vehicle id="veh1105" type="vType_car_30.970811013408802" route="route_north_to_south" depart="43.70" /><vehicle id="veh1107" type="vType_car_47.96455304112897" route="route_south_to_north" depart="44.09" /><vehicle id="veh1111" type="vType_car_21.991475655735865" route="route_south_to_east" depart="48.29" /><vehicle id="veh1112" type="vType_car_29.815666674975898" route="route_south_to_west" depart="48.36" /><vehicle id="veh1114" type="vType_car_40.07556768301109" route="route_north_to_south" depart="49.05" /><vehicle id="veh1115" type="vType_car_8.017173645419998" route="route_east_to_south" depart="50.53" /><vehicle id="veh1118" type="vType_car_19.9519932195093" route="route_east_to_west" depart="52.09" /><vehicle id="veh1119" type="vType_car_25.625010140770794" route="route_west_to_south" depart="54.58" /><vehicle id="veh1121" type="vType_car_17.21289557995218" route="route_east_to_west" depart="57.23" /><vehicle id="veh1122" type="vType_car_23.19627810987758" route="route_west_to_east" depart="60.23" /><vehicle id="veh1126" type="vType_car_36.4723392436088" route="route_west_to_south" depart="60.91" /><vehicle id="veh1128" type="vType_car_34.839751276676125" route="route_west_to_east" depart="63.01" /><vehicle id="veh1129" type="vType_car_40.03614521423498" route="route_west_to_east" depart="64.06" /><vehicle id="veh1132" type="vType_car_40.396135198913775" route="route_west_to_east" depart="67.43" /><vehicle id="veh1133" type="vType_car_14.567160855880644" route="route_south_to_north" depart="67.64" /><vehicle id="veh1136" type="vType_car_47.47315011139784" route="route_west_to_east" depart="69.31" /><vehicle id="veh1148" type="vType_car_37.96928164626621" route="route_west_to_east" depart="73.72" /><vehicle id="veh1151" type="vType_car_43.86749790580235" route="route_west_to_east" depart="74.12" /><vehicle id="veh1158" type="vType_car_33.848729903597665" route="route_west_to_east" depart="74.66" /><vehicle id="veh1159" type="vType_car_39.839806607358" route="route_west_to_east" depart="74.73" /><vehicle id="veh1161" type="vType_car_37.62309625753335" route="route_west_to_east" depart="75.38" /><vehicle id="veh1164" type="vType_car_41.56563859815525" route="route_east_to_west" depart="78.71" /><vehicle id="veh1165" type="vType_car_65.60104194866463" route="route_west_to_south" depart="79.22" /><vehicle id="veh1166" type="vType_car_12.978966645683208" route="route_east_to_south" depart="87.50" /><vehicle id="veh1168" type="vType_car_15.42145683620272" route="route_south_to_east" depart="94.74" /><vehicle id="veh1169" type="vType_car_49.50210208677381" route="route_east_to_west" depart="96.11" /><vehicle id="veh1170" type="vType_car_21.68993764006225" route="route_south_to_east" depart="97.45" /><vehicle id="veh1173" type="vType_car_12.905293726317767" route="route_east_to_north" depart="100.63" /><vehicle id="veh1175" type="vType_car_19.659988505374205" route="route_east_to_south" depart="101.28" /><vehicle id="veh1177" type="vType_car_52.0198756582104" route="route_east_to_west" depart="101.39" /><vehicle id="veh1184" type="vType_car_23.27007055108568" route="route_east_to_south" depart="105.30" /><vehicle id="veh1185" type="vType_car_22.96670345090781" route="route_east_to_south" depart="106.20" /><vehicle id="veh1188" type="vType_car_38.00239982619701" route="route_east_to_west" depart="106.78" /></routes>