<?xml version="1.0" encoding="utf-8"?>
<routes>
	<vType id="vType_car_29.889132266552682" accel="1.0" decel="5.0" sigma="0.0" length="4.5" maxSpeed="8.302536740709078" />
	<vType id="vType_car_23.29939662225594" accel="1.0" decel="5.0" sigma="0.0" length="4.5" maxSpeed="6.472054617293317" />
	<vType id="vType_car_56.3467513303924" accel="1.0" decel="5.0" sigma="0.0" length="4.5" maxSpeed="15.651875369553444" />
	<vType id="vType_car_27.65020902102582" accel="1.0" decel="5.0" sigma="0.0" length="4.5" maxSpeed="7.680613616951616" />
	<vType id="vType_car_32.19476700538581" accel="1.0" decel="5.0" sigma="0.0" length="4.5" maxSpeed="8.942990834829393" />
	<vType id="vType_car_24.81492049127026" accel="1.0" decel="5.0" sigma="0.0" length="4.5" maxSpeed="6.893033469797294" />
	<vType id="vType_car_9.720194692437053" accel="1.0" decel="5.0" sigma="0.0" length="4.5" maxSpeed="2.7000540812325147" />
	<vType id="vType_car_26.90509155768297" accel="1.0" decel="5.0" sigma="0.0" length="4.5" maxSpeed="7.473636543800825" />
	<vType id="vType_car_3.9068927197953407" accel="1.0" decel="5.0" sigma="0.0" length="4.5" maxSpeed="1.0852479777209278" />
	<vType id="vType_car_44.056464006512606" accel="1.0" decel="5.0" sigma="0.0" length="4.5" maxSpeed="12.237906668475723" />
	<vType id="vType_car_15.975615884604823" accel="1.0" decel="5.0" sigma="0.0" length="4.5" maxSpeed="4.437671079056895" />
	<vType id="vType_car_9.923247102950363" accel="1.0" decel="5.0" sigma="0.0" length="4.5" maxSpeed="2.756457528597323" />
	<vType id="vType_car_23.70852955279062" accel="1.0" decel="5.0" sigma="0.0" length="4.5" maxSpeed="6.58570265355295" />
	<vType id="vType_car_5.160481956255589" accel="1.0" decel="5.0" sigma="0.0" length="4.5" maxSpeed="1.433467210070997" />
	<vType id="vType_car_4.266424931476071" accel="1.0" decel="5.0" sigma="0.0" length="4.5" maxSpeed="1.185118036521131" />
	<vType id="vType_car_3.5595930049419393" accel="1.0" decel="5.0" sigma="0.0" length="4.5" maxSpeed="0.9887758347060942" />
	<vType id="vType_car_25.464863430291743" accel="1.0" decel="5.0" sigma="0.0" length="4.5" maxSpeed="7.073573175081039" />
	<vType id="vType_car_52.29770111601435" accel="1.0" decel="5.0" sigma="0.0" length="4.5" maxSpeed="14.527139198892876" />
	<vType id="vType_car_30.470998625621117" accel="1.0" decel="5.0" sigma="0.0" length="4.5" maxSpeed="8.464166284894755" />
	<vType id="vType_car_28.347092466392247" accel="1.0" decel="5.0" sigma="0.0" length="4.5" maxSpeed="7.8741923517756245" />
	<vType id="vType_car_6.016216632867902" accel="1.0" decel="5.0" sigma="0.0" length="4.5" maxSpeed="1.6711712869077506" />
	<vType id="vType_car_60.03878508741793" accel="1.0" decel="5.0" sigma="0.0" length="4.5" maxSpeed="16.677440302060536" />
	<vType id="vType_car_26.71047903260089" accel="1.0" decel="5.0" sigma="0.0" length="4.5" maxSpeed="7.419577509055802" />
	<vType id="vType_car_42.51759781729158" accel="1.0" decel="5.0" sigma="0.0" length="4.5" maxSpeed="11.81044383813655" />
	<vType id="vType_bus_11.99587908033971" accel="1.0" decel="5.0" sigma="0.0" length="13" maxSpeed="3.3321886334276973" />
	<vType id="vType_car_19.815711048655707" accel="1.0" decel="5.0" sigma="0.0" length="4.5" maxSpeed="5.504364180182141" />
	<vType id="vType_car_12.569109478375921" accel="1.0" decel="5.0" sigma="0.0" length="4.5" maxSpeed="3.491419299548867" />
	<vType id="vType_car_23.81020976588663" accel="1.0" decel="5.0" sigma="0.0" length="4.5" maxSpeed="6.61394715719073" />
	<vType id="vType_car_24.082079129224173" accel="1.0" decel="5.0" sigma="0.0" length="4.5" maxSpeed="6.689466424784492" />
	<vType id="vType_truck_18.789811621438542" accel="1.0" decel="5.0" sigma="0.0" length="8" maxSpeed="5.219392117066262" />
	<vType id="vType_car_41.7847725328043" accel="1.0" decel="5.0" sigma="0.0" length="4.5" maxSpeed="11.606881259112305" />
	<vType id="vType_car_37.69771033442247" accel="1.0" decel="5.0" sigma="0.0" length="4.5" maxSpeed="10.471586204006242" />
	<vType id="vType_car_12.42238590612731" accel="1.0" decel="5.0" sigma="0.0" length="4.5" maxSpeed="3.4506627517020307" />
	<vType id="vType_car_11.299608027468853" accel="1.0" decel="5.0" sigma="0.0" length="4.5" maxSpeed="3.138780007630237" />
	<vType id="vType_car_7.5159246485754165" accel="1.0" decel="5.0" sigma="0.0" length="4.5" maxSpeed="2.0877568468265046" />
	<vType id="vType_car_49.81958170323527" accel="1.0" decel="5.0" sigma="0.0" length="4.5" maxSpeed="13.838772695343131" />
	<vType id="vType_car_15.321186671249222" accel="1.0" decel="5.0" sigma="0.0" length="4.5" maxSpeed="4.2558851864581175" />
	<vType id="vType_car_3.860394690429351" accel="1.0" decel="5.0" sigma="0.0" length="4.5" maxSpeed="1.0723318584525974" />
	<vType id="vType_car_43.6776007455536" accel="1.0" decel="5.0" sigma="0.0" length="4.5" maxSpeed="12.132666873764888" />
	<vType id="vType_car_19.575280791473872" accel="1.0" decel="5.0" sigma="0.0" length="4.5" maxSpeed="5.437577997631631" />
	<vType id="vType_car_53.63530382749367" accel="1.0" decel="5.0" sigma="0.0" length="4.5" maxSpeed="14.89869550763713" />
    <vType id="vType_car_17.226385965292618" accel="1.0" decel="5.0" sigma="0.0" length="4.5" maxSpeed="4.785107212581282" />
	<vType id="vType_truck_77.14081407098818" accel="1.0" decel="5.0" sigma="0.0" length="8" maxSpeed="21.428003908607828" />
	<vType id="vType_truck_72.08300784320664" accel="1.0" decel="5.0" sigma="0.0" length="8" maxSpeed="20.023057734224068" />
	<vType id="vType_car_19.571379986770882" accel="1.0" decel="5.0" sigma="0.0" length="4.5" maxSpeed="5.43649444076969" />
	<vType id="vType_truck_8.420425268459235" accel="1.0" decel="5.0" sigma="0.0" length="8" maxSpeed="2.3390070190164542" />
	<vType id="vType_car_19.586026815474245" accel="1.0" decel="5.0" sigma="0.0" length="4.5" maxSpeed="5.440563004298402" />
	<vType id="vType_car_24.382307165594696" accel="1.0" decel="5.0" sigma="0.0" length="4.5" maxSpeed="6.772863101554082" />
	<vType id="vType_car_3.84247156384719" accel="1.0" decel="5.0" sigma="0.0" length="4.5" maxSpeed="1.067353212179775" />
	<vType id="vType_car_10.377142895340821" accel="1.0" decel="5.0" sigma="0.0" length="4.5" maxSpeed="2.882539693150228" />
	<vType id="vType_car_4.14711206468948" accel="1.0" decel="5.0" sigma="0.0" length="4.5" maxSpeed="1.1519755735248556" />
	<vType id="vType_car_4.847366999188682" accel="1.0" decel="5.0" sigma="0.0" length="4.5" maxSpeed="1.3464908331079672" />
	<vType id="vType_car_19.70121819599991" accel="1.0" decel="5.0" sigma="0.0" length="4.5" maxSpeed="5.472560609999975" />
	<vType id="vType_car_3.7579623242877083" accel="1.0" decel="5.0" sigma="0.0" length="4.5" maxSpeed="1.0438784234132523" />
	<vType id="vType_car_9.239588247826369" accel="1.0" decel="5.0" sigma="0.0" length="4.5" maxSpeed="2.56655229106288" />
	<vType id="vType_car_12.57042528729465" accel="1.0" decel="5.0" sigma="0.0" length="4.5" maxSpeed="3.4917848020262916" />
	<vType id="vType_car_23.806152747784758" accel="1.0" decel="5.0" sigma="0.0" length="4.5" maxSpeed="6.612820207717988" />
	<vType id="vType_car_4.303242359530371" accel="1.0" decel="5.0" sigma="0.0" length="4.5" maxSpeed="1.1953450998695474" />
	<vType id="vType_car_22.056149695345656" accel="1.0" decel="5.0" sigma="0.0" length="4.5" maxSpeed="6.126708248707127" />
	<vType id="vType_car_19.729312855332203" accel="1.0" decel="5.0" sigma="0.0" length="4.5" maxSpeed="5.480364682036723" />
	<vType id="vType_car_26.232200822571528" accel="1.0" decel="5.0" sigma="0.0" length="4.5" maxSpeed="7.286722450714313" />
	<vType id="vType_car_15.73773486569653" accel="1.0" decel="5.0" sigma="0.0" length="4.5" maxSpeed="4.371593018249036" />
	<vType id="vType_car_34.74220556862297" accel="1.0" decel="5.0" sigma="0.0" length="4.5" maxSpeed="9.650612657950825" />
	<vType id="vType_car_4.578819430009872" accel="1.0" decel="5.0" sigma="0.0" length="4.5" maxSpeed="1.2718942861138534" />
	<vType id="vType_car_4.967632138978709" accel="1.0" decel="5.0" sigma="0.0" length="4.5" maxSpeed="1.3798978163829745" />
	<vType id="vType_car_4.935935336142587" accel="1.0" decel="5.0" sigma="0.0" length="4.5" maxSpeed="1.3710931489284965" />
	<vType id="vType_car_8.403059213990426" accel="1.0" decel="5.0" sigma="0.0" length="4.5" maxSpeed="2.3341831149973404" />
	<vType id="vType_car_10.792694904415962" accel="1.0" decel="5.0" sigma="0.0" length="4.5" maxSpeed="2.9979708067822117" />
	<vType id="vType_car_15.461180465761771" accel="1.0" decel="5.0" sigma="0.0" length="4.5" maxSpeed="4.294772351600492" />
	<vType id="vType_car_51.36788205171679" accel="1.0" decel="5.0" sigma="0.0" length="4.5" maxSpeed="14.268856125476885" />
	<vType id="vType_car_47.71132866785864" accel="1.0" decel="5.0" sigma="0.0" length="4.5" maxSpeed="13.253146852182955" />
	<vType id="vType_car_17.497454846042693" accel="1.0" decel="5.0" sigma="0.0" length="4.5" maxSpeed="4.860404123900748" />
	<vType id="vType_car_14.983720120457898" accel="1.0" decel="5.0" sigma="0.0" length="4.5" maxSpeed="4.162144477904971" />
	<vType id="vType_truck_23.452186065475782" accel="1.0" decel="5.0" sigma="0.0" length="8" maxSpeed="6.514496129298828" />
	<vType id="vType_car_39.755654759755146" accel="1.0" decel="5.0" sigma="0.0" length="4.5" maxSpeed="11.043237433265318" />
	<vType id="vType_car_24.37745235210145" accel="1.0" decel="5.0" sigma="0.0" length="4.5" maxSpeed="6.771514542250403" />
	<vType id="vType_car_26.52227205692532" accel="1.0" decel="5.0" sigma="0.0" length="4.5" maxSpeed="7.3672977935903665" />
	<vType id="vType_car_31.079722257924644" accel="1.0" decel="5.0" sigma="0.0" length="4.5" maxSpeed="8.633256182756845" />
	<vType id="vType_car_35.518806240310745" accel="1.0" decel="5.0" sigma="0.0" length="4.5" maxSpeed="9.866335066752985" />
	<vType id="vType_car_38.20795101740724" accel="1.0" decel="5.0" sigma="0.0" length="4.5" maxSpeed="10.613319727057567" />
	<vType id="vType_car_9.733262487077566" accel="1.0" decel="5.0" sigma="0.0" length="4.5" maxSpeed="2.7036840241882127" />
	<vType id="vType_car_4.399898926340982" accel="1.0" decel="5.0" sigma="0.0" length="4.5" maxSpeed="1.2221941462058283" />
	<vType id="vType_car_5.132194373788085" accel="1.0" decel="5.0" sigma="0.0" length="4.5" maxSpeed="1.425609548274468" />
	<vType id="vType_car_4.977774134480612" accel="1.0" decel="5.0" sigma="0.0" length="4.5" maxSpeed="1.3827150373557255" />
	<vType id="vType_car_56.262624659841435" accel="1.0" decel="5.0" sigma="0.0" length="4.5" maxSpeed="15.628506849955954" />
	<vType id="vType_car_4.499421032591452" accel="1.0" decel="5.0" sigma="0.0" length="4.5" maxSpeed="1.2498391757198477" />
	<vType id="vType_car_6.904625737237578" accel="1.0" decel="5.0" sigma="0.0" length="4.5" maxSpeed="1.917951593677105" />
	<vType id="vType_car_27.282440354389717" accel="1.0" decel="5.0" sigma="0.0" length="4.5" maxSpeed="7.5784556539971435" />
	<route id="route_north_to_east" edges="north_to_center center_to_east" />
	<route id="route_north_to_south" edges="north_to_center center_to_south" />
	<route id="route_north_to_west" edges="north_to_center center_to_west" />
	<route id="route_east_to_west" edges="east_to_center center_to_west" />
	<route id="route_east_to_south" edges="east_to_center center_to_south" />
	<route id="route_east_to_north" edges="east_to_center center_to_north" />
	<route id="route_south_to_west" edges="south_to_center center_to_west" />
	<route id="route_south_to_north" edges="south_to_center center_to_north" />
	<route id="route_south_to_east" edges="south_to_center center_to_east" />
	<route id="route_west_to_south" edges="west_to_center center_to_south" />
	<route id="route_west_to_north" edges="west_to_center center_to_north" />
	<route id="route_west_to_east" edges="west_to_center center_to_east" />
	<vehicle id="veh89" type="vType_car_23.29939662225594" route="route_west_to_north" depart="0.03" />
	<vehicle id="veh97" type="vType_car_27.65020902102582" route="route_east_to_west" depart="0.03" />
	<vehicle id="veh102" type="vType_car_32.19476700538581" route="route_east_to_west" depart="0.03" />
	<vehicle id="veh103" type="vType_car_24.81492049127026" route="route_east_to_west" depart="0.03" />
	<vehicle id="veh108" type="vType_car_9.720194692437053" route="route_east_to_north" depart="0.03" />
	<vehicle id="veh109" type="vType_car_26.90509155768297" route="route_east_to_west" depart="0.03" />
	<vehicle id="veh114" type="vType_car_15.975615884604823" route="route_west_to_north" depart="3.02" />
	<vehicle id="veh116" type="vType_car_23.70852955279062" route="route_east_to_west" depart="3.02" />
	<vehicle id="veh125" type="vType_car_25.464863430291743" route="route_east_to_west" depart="9.59" />
	<vehicle id="veh127" type="vType_car_52.29770111601435" route="route_west_to_east" depart="11.20" />
	<vehicle id="veh128" type="vType_car_30.470998625621117" route="route_east_to_west" depart="14.79" />
	<vehicle id="veh129" type="vType_car_28.347092466392247" route="route_east_to_west" depart="15.05" />
	<vehicle id="veh131" type="vType_car_60.03878508741793" route="route_east_to_west" depart="26.55" />
	<vehicle id="veh132" type="vType_car_26.71047903260089" route="route_south_to_west" depart="34.10" />
	<vehicle id="veh133" type="vType_car_42.51759781729158" route="route_east_to_west" depart="36.75" />
	<vehicle id="veh134" type="vType_bus_11.99587908033971" route="route_north_to_west" depart="42.01" />
	<vehicle id="veh135" type="vType_car_19.815711048655707" route="route_west_to_east" depart="47.21" />
	<vehicle id="veh138" type="vType_car_12.569109478375921" route="route_north_to_east" depart="49.69" />
	<vehicle id="veh139" type="vType_car_23.81020976588663" route="route_west_to_east" depart="54.72" />
	<vehicle id="veh140" type="vType_car_24.082079129224173" route="route_east_to_west" depart="58.81" />
	<vehicle id="veh143" type="vType_car_41.7847725328043" route="route_west_to_east" depart="81.48" />
	<vehicle id="veh144" type="vType_car_37.69771033442247" route="route_west_to_east" depart="83.15" />
	<vehicle id="veh145" type="vType_car_12.42238590612731" route="route_south_to_east" depart="84.36" />
	<vehicle id="veh146" type="vType_car_11.299608027468853" route="route_north_to_south" depart="87.24" />
	<vehicle id="veh150" type="vType_car_49.81958170323527" route="route_east_to_west" depart="91.77" />
	<vehicle id="veh152" type="vType_car_15.321186671249222" route="route_south_to_east" depart="92.64" />
	<vehicle id="veh155" type="vType_car_43.6776007455536" route="route_south_to_north" depart="106.96" />
	<vehicle id="veh156" type="vType_car_19.575280791473872" route="route_north_to_west" depart="108.00" />
	<vehicle id="veh157" type="vType_car_53.63530382749367" route="route_north_to_south" depart="114.84" />
    <vehicle id="veh160" type="vType_truck_77.14081407098818" route="route_west_to_east" depart="128.82" />
	<vehicle id="veh162" type="vType_truck_72.08300784320664" route="route_west_to_east" depart="130.76" />
	<vehicle id="veh163" type="vType_car_19.571379986770882" route="route_west_to_east" depart="133.55" />
	<vehicle id="veh165" type="vType_car_19.586026815474245" route="route_west_to_east" depart="135.66" />
	<vehicle id="veh166" type="vType_car_24.382307165594696" route="route_south_to_east" depart="135.73" />
	<vehicle id="veh171" type="vType_car_19.70121819599991" route="route_east_to_west" depart="143.50" />
	<vehicle id="veh173" type="vType_car_9.239588247826369" route="route_east_to_north" depart="144.88" />
	<vehicle id="veh174" type="vType_car_12.57042528729465" route="route_east_to_south" depart="147.49" />
	<vehicle id="veh176" type="vType_car_23.806152747784758" route="route_west_to_east" depart="148.80" />
	<vehicle id="veh178" type="vType_car_22.056149695345656" route="route_west_to_east" depart="153.03" />
	<vehicle id="veh180" type="vType_car_19.729312855332203" route="route_north_to_west" depart="154.13" />
	<vehicle id="veh182" type="vType_car_26.232200822571528" route="route_west_to_east" depart="155.54" />
	<vehicle id="veh184" type="vType_car_15.73773486569653" route="route_north_to_west" depart="159.70" />
	<vehicle id="veh185" type="vType_car_34.74220556862297" route="route_west_to_east" depart="160.10" />
	<vehicle id="veh190" type="vType_car_10.792694904415962" route="route_east_to_north" depart="173.71" />
	<vehicle id="veh191" type="vType_car_15.461180465761771" route="route_north_to_south" depart="177.07" />
	<vehicle id="veh192" type="vType_car_51.36788205171679" route="route_east_to_west" depart="184.61" />
	<vehicle id="veh194" type="vType_car_47.71132866785864" route="route_east_to_west" depart="189.81" />
	<vehicle id="veh195" type="vType_car_17.497454846042693" route="route_north_to_south" depart="190.98" />
	<vehicle id="veh196" type="vType_car_14.983720120457898" route="route_south_to_north" depart="196.24" />
	<vehicle id="veh198" type="vType_truck_23.452186065475782" route="route_west_to_east" depart="204.66" />
	<vehicle id="veh199" type="vType_car_39.755654759755146" route="route_south_to_north" depart="209.22" />
	<vehicle id="veh200" type="vType_car_24.37745235210145" route="route_west_to_east" depart="210.16" />
	<vehicle id="veh201" type="vType_car_26.52227205692532" route="route_east_to_west" depart="213.71" />
	<vehicle id="veh202" type="vType_car_31.079722257924644" route="route_west_to_east" depart="218.51" />
	<vehicle id="veh204" type="vType_car_35.518806240310745" route="route_west_to_east" depart="219.38" />
	<vehicle id="veh205" type="vType_car_38.20795101740724" route="route_west_to_east" depart="222.30" />
	<vehicle id="veh213" type="vType_car_56.262624659841435" route="route_west_to_east" depart="233.36" />
</routes>
