<?xml version='1.0' encoding='utf-8'?>
<routes><vType id="vType_car_26.767663468994304" accel="1.0" decel="5.0" sigma="0.0" length="4.5" maxSpeed="7.43546207472064" /><vType id="vType_car_19.063137392485615" accel="1.0" decel="5.0" sigma="0.0" length="4.5" maxSpeed="5.2953159423571154" /><vType id="vType_car_6.914923477523728" accel="1.0" decel="5.0" sigma="0.0" length="4.5" maxSpeed="1.9208120770899244" /><vType id="vType_car_9.35512056255046" accel="1.0" decel="5.0" sigma="0.0" length="4.5" maxSpeed="2.5986446007084614" /><vType id="vType_car_13.960843871230981" accel="1.0" decel="5.0" sigma="0.0" length="4.5" maxSpeed="3.8780121864530503" /><vType id="vType_car_7.626173315378843" accel="1.0" decel="5.0" sigma="0.0" length="4.5" maxSpeed="2.118381476494123" /><vType id="vType_car_24.743753798482338" accel="1.0" decel="5.0" sigma="0.0" length="4.5" maxSpeed="6.873264944022871" /><vType id="vType_car_4.205925166351918" accel="1.0" decel="5.0" sigma="0.0" length="4.5" maxSpeed="1.168312546208866" /><vType id="vType_car_26.11198966679567" accel="1.0" decel="5.0" sigma="0.0" length="4.5" maxSpeed="7.253330462998797" /><vType id="vType_car_15.845054326995387" accel="1.0" decel="5.0" sigma="0.0" length="4.5" maxSpeed="4.401403979720941" /><vType id="vType_car_3.177167959472943" accel="1.0" decel="5.0" sigma="0.0" length="4.5" maxSpeed="0.8825466554091509" /><vType id="vType_car_4.956167709673611" accel="1.0" decel="5.0" sigma="0.0" length="4.5" maxSpeed="1.3767132526871142" /><vType id="vType_car_8.261446369592619" accel="1.0" decel="5.0" sigma="0.0" length="4.5" maxSpeed="2.2948462137757275" /><vType id="vType_car_14.665825909026386" accel="1.0" decel="5.0" sigma="0.0" length="4.5" maxSpeed="4.073840530285107" /><vType id="vType_car_5.0389304614167685" accel="1.0" decel="5.0" sigma="0.0" length="4.5" maxSpeed="1.3997029059491024" /><vType id="vType_car_7.916835991624594" accel="1.0" decel="5.0" sigma="0.0" length="4.5" maxSpeed="2.199121108784609" /><vType id="vType_car_20.17325491638154" accel="1.0" decel="5.0" sigma="0.0" length="4.5" maxSpeed="5.6036819212170945" /><vType id="vType_car_4.116063326861326" accel="1.0" decel="5.0" sigma="0.0" length="4.5" maxSpeed="1.143350924128146" /><vType id="vType_car_13.615021739431535" accel="1.0" decel="5.0" sigma="0.0" length="4.5" maxSpeed="3.7819504831754265" /><vType id="vType_car_9.592362428983977" accel="1.0" decel="5.0" sigma="0.0" length="4.5" maxSpeed="2.6645451191622156" /><vType id="vType_car_4.56189534742773" accel="1.0" decel="5.0" sigma="0.0" length="4.5" maxSpeed="1.2671931520632582" /><vType id="vType_car_4.20546977461968" accel="1.0" decel="5.0" sigma="0.0" length="4.5" maxSpeed="1.1681860485054667" /><vType id="vType_car_11.116683225029107" accel="1.0" decel="5.0" sigma="0.0" length="4.5" maxSpeed="3.087967562508085" /><vType id="vType_car_23.804821789629575" accel="1.0" decel="5.0" sigma="0.0" length="4.5" maxSpeed="6.612450497119326" /><vType id="vType_car_15.115053555933478" accel="1.0" decel="5.0" sigma="0.0" length="4.5" maxSpeed="4.198625987759299" /><vType id="vType_car_17.978641823707605" accel="1.0" decel="5.0" sigma="0.0" length="4.5" maxSpeed="4.9940671732521125" /><vType id="vType_car_3.5548681876330304" accel="1.0" decel="5.0" sigma="0.0" length="4.5" maxSpeed="0.9874633854536196" /><vType id="vType_car_24.65826439192028" accel="1.0" decel="5.0" sigma="0.0" length="4.5" maxSpeed="6.849517886644522" /><vType id="vType_car_7.702649720171485" accel="1.0" decel="5.0" sigma="0.0" length="4.5" maxSpeed="2.139624922269857" /><vType id="vType_car_29.204800705785747" accel="1.0" decel="5.0" sigma="0.0" length="4.5" maxSpeed="8.11244464049604" /><vType id="vType_car_20.185095818203088" accel="1.0" decel="5.0" sigma="0.0" length="4.5" maxSpeed="5.6069710606119685" /><vType id="vType_car_17.680496026798508" accel="1.0" decel="5.0" sigma="0.0" length="4.5" maxSpeed="4.911248896332919" /><vType id="vType_car_0.629866307677096" accel="1.0" decel="5.0" sigma="0.0" length="4.5" maxSpeed="0.17496286324363777" /><vType id="vType_car_23.664011525144364" accel="1.0" decel="5.0" sigma="0.0" length="4.5" maxSpeed="6.573336534762323" /><vType id="vType_car_26.921469400413326" accel="1.0" decel="5.0" sigma="0.0" length="4.5" maxSpeed="7.478185944559257" /><vType id="vType_car_3.489488171364414" accel="1.0" decel="5.0" sigma="0.0" length="4.5" maxSpeed="0.9693022698234482" /><vType id="vType_car_9.049029661219206" accel="1.0" decel="5.0" sigma="0.0" length="4.5" maxSpeed="2.5136193503386686" /><vType id="vType_car_3.8810853085212815" accel="1.0" decel="5.0" sigma="0.0" length="4.5" maxSpeed="1.0780792523670226" /><vType id="vType_car_7.105091049311924" accel="1.0" decel="5.0" sigma="0.0" length="4.5" maxSpeed="1.9736364025866455" /><vType id="vType_car_12.720123983247865" accel="1.0" decel="5.0" sigma="0.0" length="4.5" maxSpeed="3.533367773124407" /><vType id="vType_car_4.057080040625998" accel="1.0" decel="5.0" sigma="0.0" length="4.5" maxSpeed="1.126966677951666" /><vType id="vType_car_15.65620753900765" accel="1.0" decel="5.0" sigma="0.0" length="4.5" maxSpeed="4.3489465386132355" /><vType id="vType_car_3.8719517014765255" accel="1.0" decel="5.0" sigma="0.0" length="4.5" maxSpeed="1.0755421392990347" /><vType id="vType_car_33.02980486121007" accel="1.0" decel="5.0" sigma="0.0" length="4.5" maxSpeed="9.174945794780575" /><vType id="vType_car_6.095284758620723" accel="1.0" decel="5.0" sigma="0.0" length="4.5" maxSpeed="1.6931346551724231" /><vType id="vType_car_16.414342621667927" accel="1.0" decel="5.0" sigma="0.0" length="4.5" maxSpeed="4.55953961712998" /><route id="route_north_to_east" edges="north_to_center center_to_east" /><route id="route_north_to_south" edges="north_to_center center_to_south" /><route id="route_north_to_west" edges="north_to_center center_to_west" /><route id="route_east_to_west" edges="east_to_center center_to_west" /><route id="route_east_to_south" edges="east_to_center center_to_south" /><route id="route_east_to_north" edges="east_to_center center_to_north" /><route id="route_south_to_west" edges="south_to_center center_to_west" /><route id="route_south_to_north" edges="south_to_center center_to_north" /><route id="route_south_to_east" edges="south_to_center center_to_east" /><route id="route_west_to_south" edges="west_to_center center_to_south" /><route id="route_west_to_north" edges="west_to_center center_to_north" /><route id="route_west_to_east" edges="west_to_center center_to_east" /><vehicle id="veh299" type="vType_car_26.767663468994304" route="route_west_to_east" depart="0.03" /><vehicle id="veh321" type="vType_car_19.063137392485615" route="route_north_to_east" depart="0.03" /><vehicle id="veh325" type="vType_car_6.914923477523728" route="route_east_to_north" depart="0.03" /><vehicle id="veh329" type="vType_car_13.960843871230981" route="route_north_to_east" depart="0.07" /><vehicle id="veh330" type="vType_car_7.626173315378843" route="route_east_to_north" depart="2.37" /><vehicle id="veh332" type="vType_car_24.743753798482338" route="route_east_to_west" depart="6.57" /><vehicle id="veh334" type="vType_car_26.11198966679567" route="route_west_to_south" depart="15.24" /><vehicle id="veh336" type="vType_car_15.845054326995387" route="route_north_to_south" depart="16.27" /><vehicle id="veh339" type="vType_car_8.261446369592619" route="route_east_to_north" depart="21.97" /><vehicle id="veh340" type="vType_car_14.665825909026386" route="route_north_to_east" depart="22.80" /><vehicle id="veh342" type="vType_car_7.916835991624594" route="route_east_to_north" depart="25.21" /><vehicle id="veh346" type="vType_car_20.17325491638154" route="route_north_to_south" depart="25.71" /><vehicle id="veh349" type="vType_car_13.615021739431535" route="route_west_to_south" depart="28.01" /><vehicle id="veh350" type="vType_car_9.592362428983977" route="route_east_to_north" depart="28.27" /><vehicle id="veh356" type="vType_car_23.804821789629575" route="route_north_to_west" depart="31.67" /><vehicle id="veh357" type="vType_car_15.115053555933478" route="route_north_to_east" depart="32.14" /><vehicle id="veh358" type="vType_car_17.978641823707605" route="route_north_to_east" depart="34.47" /><vehicle id="veh360" type="vType_car_24.65826439192028" route="route_north_to_south" depart="35.37" /><vehicle id="veh364" type="vType_car_29.204800705785747" route="route_south_to_west" depart="37.34" /><vehicle id="veh365" type="vType_car_20.185095818203088" route="route_north_to_west" depart="38.67" /><vehicle id="veh367" type="vType_car_17.680496026798508" route="route_south_to_east" depart="38.87" /><vehicle id="veh369" type="vType_car_23.664011525144364" route="route_north_to_south" depart="42.18" /><vehicle id="veh370" type="vType_car_26.921469400413326" route="route_north_to_south" depart="42.18" /><vehicle id="veh372" type="vType_car_9.049029661219206" route="route_east_to_north" depart="44.78" /><vehicle id="veh374" type="vType_car_7.105091049311924" route="route_east_to_north" depart="47.74" /><vehicle id="veh375" type="vType_car_12.720123983247865" route="route_west_to_south" depart="49.44" /><vehicle id="veh378" type="vType_car_15.65620753900765" route="route_south_to_north" depart="51.41" /><vehicle id="veh382" type="vType_car_33.02980486121007" route="route_south_to_north" depart="53.11" /></routes>