<?xml version='1.0' encoding='utf-8'?>
<routes><vType id="vType_car_27.999642342715603" accel="1.0" decel="5.0" sigma="0.0" length="4.5" maxSpeed="7.777678428532112" /><vType id="vType_car_6.671206277217728" accel="1.0" decel="5.0" sigma="0.0" length="4.5" maxSpeed="1.853112854782702" /><vType id="vType_car_5.04095196404953" accel="1.0" decel="5.0" sigma="0.0" length="4.5" maxSpeed="1.4002644344582027" /><vType id="vType_car_12.031349821003055" accel="1.0" decel="5.0" sigma="0.0" length="4.5" maxSpeed="3.3420416169452927" /><vType id="vType_truck_0.3416329385716098" accel="1.0" decel="5.0" sigma="0.0" length="8" maxSpeed="0.09489803849211384" /><vType id="vType_car_13.794927049360606" accel="1.0" decel="5.0" sigma="0.0" length="4.5" maxSpeed="3.831924180377946" /><vType id="vType_car_18.341228697024093" accel="1.0" decel="5.0" sigma="0.0" length="4.5" maxSpeed="5.094785749173359" /><vType id="vType_car_15.49119205486199" accel="1.0" decel="5.0" sigma="0.0" length="4.5" maxSpeed="4.30310890412833" /><vType id="vType_car_28.27959805855096" accel="1.0" decel="5.0" sigma="0.0" length="4.5" maxSpeed="7.855443905153044" /><vType id="vType_car_15.407334848550738" accel="1.0" decel="5.0" sigma="0.0" length="4.5" maxSpeed="4.279815235708538" /><vType id="vType_car_39.64754566398281" accel="1.0" decel="5.0" sigma="0.0" length="4.5" maxSpeed="11.013207128884114" /><vType id="vType_car_6.128053867388913" accel="1.0" decel="5.0" sigma="0.0" length="4.5" maxSpeed="1.7022371853858091" /><vType id="vType_car_6.789458968496085" accel="1.0" decel="5.0" sigma="0.0" length="4.5" maxSpeed="1.8859608245822457" /><vType id="vType_car_6.031574319663201" accel="1.0" decel="5.0" sigma="0.0" length="4.5" maxSpeed="1.6754373110175558" /><vType id="vType_car_15.378176519305166" accel="1.0" decel="5.0" sigma="0.0" length="4.5" maxSpeed="4.2717156998069905" /><vType id="vType_car_3.7579623242877083" accel="1.0" decel="5.0" sigma="0.0" length="4.5" maxSpeed="1.0438784234132523" /><vType id="vType_car_1.8789811621438541" accel="1.0" decel="5.0" sigma="0.0" length="4.5" maxSpeed="0.5219392117066262" /><vType id="vType_car_5.60359214820948" accel="1.0" decel="5.0" sigma="0.0" length="4.5" maxSpeed="1.5565533745026334" /><vType id="vType_car_4.696148090836522" accel="1.0" decel="5.0" sigma="0.0" length="4.5" maxSpeed="1.3044855807879228" /><vType id="vType_car_32.34308803477217" accel="1.0" decel="5.0" sigma="0.0" length="4.5" maxSpeed="8.984191120770047" /><vType id="vType_car_4.3976180233016064" accel="1.0" decel="5.0" sigma="0.0" length="4.5" maxSpeed="1.221560562028224" /><vType id="vType_car_5.224080239296733" accel="1.0" decel="5.0" sigma="0.0" length="4.5" maxSpeed="1.451133399804648" /><route id="route_north_to_east" edges="north_to_center center_to_east" /><route id="route_north_to_south" edges="north_to_center center_to_south" /><route id="route_north_to_west" edges="north_to_center center_to_west" /><route id="route_east_to_west" edges="east_to_center center_to_west" /><route id="route_east_to_south" edges="east_to_center center_to_south" /><route id="route_east_to_north" edges="east_to_center center_to_north" /><route id="route_south_to_west" edges="south_to_center center_to_west" /><route id="route_south_to_north" edges="south_to_center center_to_north" /><route id="route_south_to_east" edges="south_to_center center_to_east" /><route id="route_west_to_south" edges="west_to_center center_to_south" /><route id="route_west_to_north" edges="west_to_center center_to_north" /><route id="route_west_to_east" edges="west_to_center center_to_east" /><vehicle id="veh69" type="vType_car_27.999642342715603" route="route_north_to_south" depart="0.03" /><vehicle id="veh83" type="vType_car_13.794927049360606" route="route_north_to_east" depart="7.21" /><vehicle id="veh84" type="vType_car_18.341228697024093" route="route_north_to_west" depart="13.45" /><vehicle id="veh92" type="vType_car_39.64754566398281" route="route_north_to_south" depart="18.17" /><vehicle id="veh99" type="vType_car_15.378176519305166" route="route_south_to_east" depart="35.88" /><vehicle id="veh104" type="vType_car_32.34308803477217" route="route_south_to_north" depart="44.83" /></routes>