<?xml version='1.0' encoding='utf-8'?>
<routes><vType id="vType_car_23.648336992846552" accel="1.0" decel="5.0" sigma="0.0" length="4.5" maxSpeed="6.5689824980129305" /><vType id="vType_car_17.41326347602178" accel="1.0" decel="5.0" sigma="0.0" length="4.5" maxSpeed="4.837017632228272" /><vType id="vType_car_22.67887343247077" accel="1.0" decel="5.0" sigma="0.0" length="4.5" maxSpeed="6.299687064575213" /><vType id="vType_car_14.428623473853362" accel="1.0" decel="5.0" sigma="0.0" length="4.5" maxSpeed="4.007950964959267" /><vType id="vType_car_20.48590616073031" accel="1.0" decel="5.0" sigma="0.0" length="4.5" maxSpeed="5.690529489091753" /><vType id="vType_car_3.7579623242877083" accel="1.0" decel="5.0" sigma="0.0" length="4.5" maxSpeed="1.0438784234132523" /><vType id="vType_car_15.279224269752337" accel="1.0" decel="5.0" sigma="0.0" length="4.5" maxSpeed="4.244228963820094" /><vType id="vType_car_5.015088295473412" accel="1.0" decel="5.0" sigma="0.0" length="4.5" maxSpeed="1.393080082075948" /><vType id="vType_car_25.223333613150604" accel="1.0" decel="5.0" sigma="0.0" length="4.5" maxSpeed="7.006481559208501" /><vType id="vType_car_19.180314601381312" accel="1.0" decel="5.0" sigma="0.0" length="4.5" maxSpeed="5.327865167050365" /><vType id="vType_car_29.066765483260266" accel="1.0" decel="5.0" sigma="0.0" length="4.5" maxSpeed="8.074101523127851" /><vType id="vType_car_21.56913204637689" accel="1.0" decel="5.0" sigma="0.0" length="4.5" maxSpeed="5.991425568438025" /><vType id="vType_truck_22.175209610122803" accel="1.0" decel="5.0" sigma="0.0" length="8" maxSpeed="6.159780447256334" /><vType id="vType_car_52.431085836820415" accel="1.0" decel="5.0" sigma="0.0" length="4.5" maxSpeed="14.564190510227892" /><vType id="vType_car_34.45660233247068" accel="1.0" decel="5.0" sigma="0.0" length="4.5" maxSpeed="9.5712784256863" /><vType id="vType_car_12.961280592138086" accel="1.0" decel="5.0" sigma="0.0" length="4.5" maxSpeed="3.6003557200383574" /><vType id="vType_car_59.488764052059274" accel="1.0" decel="5.0" sigma="0.0" length="4.5" maxSpeed="16.524656681127574" /><route id="route_north_to_east" edges="north_to_center center_to_east" /><route id="route_north_to_south" edges="north_to_center center_to_south" /><route id="route_north_to_west" edges="north_to_center center_to_west" /><route id="route_east_to_west" edges="east_to_center center_to_west" /><route id="route_east_to_south" edges="east_to_center center_to_south" /><route id="route_east_to_north" edges="east_to_center center_to_north" /><route id="route_south_to_west" edges="south_to_center center_to_west" /><route id="route_south_to_north" edges="south_to_center center_to_north" /><route id="route_south_to_east" edges="south_to_center center_to_east" /><route id="route_west_to_south" edges="west_to_center center_to_south" /><route id="route_west_to_north" edges="west_to_center center_to_north" /><route id="route_west_to_east" edges="west_to_center center_to_east" /><vehicle id="veh27" type="vType_car_23.648336992846552" route="route_east_to_south" depart="0.03" /><vehicle id="veh40" type="vType_car_22.67887343247077" route="route_north_to_south" depart="0.03" /><vehicle id="veh42" type="vType_car_14.428623473853362" route="route_north_to_west" depart="0.70" /><vehicle id="veh43" type="vType_car_20.48590616073031" route="route_west_to_east" depart="4.16" /><vehicle id="veh46" type="vType_car_15.279224269752337" route="route_west_to_north" depart="17.60" /><vehicle id="veh48" type="vType_car_25.223333613150604" route="route_north_to_south" depart="20.32" /><vehicle id="veh49" type="vType_car_19.180314601381312" route="route_north_to_west" depart="23.84" /><vehicle id="veh50" type="vType_car_29.066765483260266" route="route_north_to_south" depart="23.87" /><vehicle id="veh51" type="vType_car_21.56913204637689" route="route_west_to_east" depart="35.10" /><vehicle id="veh52" type="vType_truck_22.175209610122803" route="route_west_to_east" depart="35.47" /><vehicle id="veh53" type="vType_car_52.431085836820415" route="route_north_to_south" depart="36.71" /><vehicle id="veh54" type="vType_car_34.45660233247068" route="route_west_to_south" depart="45.10" /><vehicle id="veh55" type="vType_car_12.961280592138086" route="route_south_to_east" depart="45.33" /></routes>