<?xml version='1.0' encoding='utf-8'?>
<routes><vType id="vType_car_11.256407716919442" accel="1.0" decel="5.0" sigma="0.0" length="4.5" maxSpeed="3.1267799213665115" /><vType id="vType_car_30.50386017584392" accel="1.0" decel="5.0" sigma="0.0" length="4.5" maxSpeed="8.473294493289977" /><vType id="vType_car_16.619082214100395" accel="1.0" decel="5.0" sigma="0.0" length="4.5" maxSpeed="4.616411726138998" /><vType id="vType_car_24.57174687183808" accel="1.0" decel="5.0" sigma="0.0" length="4.5" maxSpeed="6.825485242177244" /><vType id="vType_car_41.57731330844053" accel="1.0" decel="5.0" sigma="0.0" length="4.5" maxSpeed="11.549253696789036" /><vType id="vType_car_13.620785942561493" accel="1.0" decel="5.0" sigma="0.0" length="4.5" maxSpeed="3.7835516507115257" /><vType id="vType_car_27.902296544760013" accel="1.0" decel="5.0" sigma="0.0" length="4.5" maxSpeed="7.750637929100003" /><vType id="vType_car_3.828447018068994" accel="1.0" decel="5.0" sigma="0.0" length="4.5" maxSpeed="1.063457505019165" /><vType id="vType_car_15.699343144653328" accel="1.0" decel="5.0" sigma="0.0" length="4.5" maxSpeed="4.360928651292591" /><vType id="vType_car_29.163488133224234" accel="1.0" decel="5.0" sigma="0.0" length="4.5" maxSpeed="8.10096892589562" /><vType id="vType_car_17.155121599291817" accel="1.0" decel="5.0" sigma="0.0" length="4.5" maxSpeed="4.765311555358838" /><vType id="vType_car_23.9390190179611" accel="1.0" decel="5.0" sigma="0.0" length="4.5" maxSpeed="6.649727504989195" /><vType id="vType_car_31.755616996919745" accel="1.0" decel="5.0" sigma="0.0" length="4.5" maxSpeed="8.821004721366595" /><vType id="vType_car_23.200903387344688" accel="1.0" decel="5.0" sigma="0.0" length="4.5" maxSpeed="6.4446953853735245" /><vType id="vType_car_2.111813211602546" accel="1.0" decel="5.0" sigma="0.0" length="4.5" maxSpeed="0.5866147810007072" /><vType id="vType_car_17.514176676034054" accel="1.0" decel="5.0" sigma="0.0" length="4.5" maxSpeed="4.865049076676126" /><vType id="vType_car_32.19138155223317" accel="1.0" decel="5.0" sigma="0.0" length="4.5" maxSpeed="8.942050431175879" /><vType id="vType_car_2.669826277722029" accel="1.0" decel="5.0" sigma="0.0" length="4.5" maxSpeed="0.7416184104783413" /><vType id="vType_car_18.688517154789313" accel="1.0" decel="5.0" sigma="0.0" length="4.5" maxSpeed="5.191254765219253" /><vType id="vType_car_22.0246558594762" accel="1.0" decel="5.0" sigma="0.0" length="4.5" maxSpeed="6.117959960965611" /><vType id="vType_car_33.765382876051994" accel="1.0" decel="5.0" sigma="0.0" length="4.5" maxSpeed="9.379273021125554" /><vType id="vType_car_4.02586787604991" accel="1.0" decel="5.0" sigma="0.0" length="4.5" maxSpeed="1.118296632236086" /><vType id="vType_car_31.239794013243902" accel="1.0" decel="5.0" sigma="0.0" length="4.5" maxSpeed="8.677720559234418" /><vType id="vType_car_4.598937244548933" accel="1.0" decel="5.0" sigma="0.0" length="4.5" maxSpeed="1.2774825679302593" /><vType id="vType_car_19.359227313811953" accel="1.0" decel="5.0" sigma="0.0" length="4.5" maxSpeed="5.377563142725543" /><vType id="vType_car_5.087093862754869" accel="1.0" decel="5.0" sigma="0.0" length="4.5" maxSpeed="1.413081628543019" /><vType id="vType_car_29.494143616990815" accel="1.0" decel="5.0" sigma="0.0" length="4.5" maxSpeed="8.192817671386337" /><vType id="vType_truck_13.110815107701677" accel="1.0" decel="5.0" sigma="0.0" length="8" maxSpeed="3.641893085472688" /><vType id="vType_car_15.06172366378149" accel="1.0" decel="5.0" sigma="0.0" length="4.5" maxSpeed="4.183812128828192" /><vType id="vType_car_20.406769038148855" accel="1.0" decel="5.0" sigma="0.0" length="4.5" maxSpeed="5.668546955041348" /><vType id="vType_car_16.162875522872476" accel="1.0" decel="5.0" sigma="0.0" length="4.5" maxSpeed="4.489687645242355" /><vType id="vType_car_19.822552130576227" accel="1.0" decel="5.0" sigma="0.0" length="4.5" maxSpeed="5.506264480715618" /><vType id="vType_car_33.309613527694594" accel="1.0" decel="5.0" sigma="0.0" length="4.5" maxSpeed="9.252670424359609" /><vType id="vType_car_26.06304554892046" accel="1.0" decel="5.0" sigma="0.0" length="4.5" maxSpeed="7.239734874700128" /><vType id="vType_truck_14.198798336521582" accel="1.0" decel="5.0" sigma="0.0" length="8" maxSpeed="3.9441106490337727" /><vType id="vType_car_25.8919053667733" accel="1.0" decel="5.0" sigma="0.0" length="4.5" maxSpeed="7.192195935214806" /><vType id="vType_car_18.080200510668323" accel="1.0" decel="5.0" sigma="0.0" length="4.5" maxSpeed="5.022277919630089" /><vType id="vType_car_28.65998138058099" accel="1.0" decel="5.0" sigma="0.0" length="4.5" maxSpeed="7.961105939050275" /><vType id="vType_car_47.05999539574612" accel="1.0" decel="5.0" sigma="0.0" length="4.5" maxSpeed="13.072220943262812" /><vType id="vType_car_4.2228437227292135" accel="1.0" decel="5.0" sigma="0.0" length="4.5" maxSpeed="1.1730121452025593" /><vType id="vType_car_20.11579166423447" accel="1.0" decel="5.0" sigma="0.0" length="4.5" maxSpeed="5.587719906731798" /><vType id="vType_car_4.700796662835033" accel="1.0" decel="5.0" sigma="0.0" length="4.5" maxSpeed="1.305776850787509" /><vType id="vType_car_9.16322785797677" accel="1.0" decel="5.0" sigma="0.0" length="4.5" maxSpeed="2.545341071660214" /><vType id="vType_car_5.944912854974626" accel="1.0" decel="5.0" sigma="0.0" length="4.5" maxSpeed="1.651364681937396" /><vType id="vType_car_27.750732964187254" accel="1.0" decel="5.0" sigma="0.0" length="4.5" maxSpeed="7.708536934496459" /><vType id="vType_car_21.75828172476736" accel="1.0" decel="5.0" sigma="0.0" length="4.5" maxSpeed="6.043967145768711" /><vType id="vType_car_11.97181603543657" accel="1.0" decel="5.0" sigma="0.0" length="4.5" maxSpeed="3.3255044542879357" /><vType id="vType_car_4.310953075692746" accel="1.0" decel="5.0" sigma="0.0" length="4.5" maxSpeed="1.1974869654702072" /><vType id="vType_car_3.4204644669738724" accel="1.0" decel="5.0" sigma="0.0" length="4.5" maxSpeed="0.9501290186038535" /><vType id="vType_truck_24.74594925904826" accel="1.0" decel="5.0" sigma="0.0" length="8" maxSpeed="6.873874794180072" /><vType id="vType_truck_46.698910194814154" accel="1.0" decel="5.0" sigma="0.0" length="8" maxSpeed="12.971919498559487" /><vType id="vType_car_33.39360081386335" accel="1.0" decel="5.0" sigma="0.0" length="4.5" maxSpeed="9.276000226073153" /><vType id="vType_car_3.9415967353505077" accel="1.0" decel="5.0" sigma="0.0" length="4.5" maxSpeed="1.0948879820418076" /><vType id="vType_car_5.378433931280531" accel="1.0" decel="5.0" sigma="0.0" length="4.5" maxSpeed="1.494009425355703" /><vType id="vType_car_19.48767323953364" accel="1.0" decel="5.0" sigma="0.0" length="4.5" maxSpeed="5.4132425665371215" /><vType id="vType_car_15.460034026918096" accel="1.0" decel="5.0" sigma="0.0" length="4.5" maxSpeed="4.294453896366138" /><vType id="vType_car_8.036724668433823" accel="1.0" decel="5.0" sigma="0.0" length="4.5" maxSpeed="2.2324235190093953" /><vType id="vType_car_23.448555351699895" accel="1.0" decel="5.0" sigma="0.0" length="4.5" maxSpeed="6.513487597694415" /><vType id="vType_car_13.913457595460699" accel="1.0" decel="5.0" sigma="0.0" length="4.5" maxSpeed="3.864849332072416" /><vType id="vType_car_15.248306264288757" accel="1.0" decel="5.0" sigma="0.0" length="4.5" maxSpeed="4.235640628969099" /><vType id="vType_car_17.50877647230914" accel="1.0" decel="5.0" sigma="0.0" length="4.5" maxSpeed="4.863549020085872" /><vType id="vType_car_21.608250554870125" accel="1.0" decel="5.0" sigma="0.0" length="4.5" maxSpeed="6.002291820797256" /><vType id="vType_car_8.703333678145269" accel="1.0" decel="5.0" sigma="0.0" length="4.5" maxSpeed="2.4175926883736856" /><vType id="vType_car_18.712217858770252" accel="1.0" decel="5.0" sigma="0.0" length="4.5" maxSpeed="5.197838294102848" /><vType id="vType_car_26.078673354257706" accel="1.0" decel="5.0" sigma="0.0" length="4.5" maxSpeed="7.2440759317382515" /><vType id="vType_car_5.879287235396369" accel="1.0" decel="5.0" sigma="0.0" length="4.5" maxSpeed="1.633135343165658" /><vType id="vType_car_4.391133711611276" accel="1.0" decel="5.0" sigma="0.0" length="4.5" maxSpeed="1.2197593643364655" /><vType id="vType_car_28.322780471027485" accel="1.0" decel="5.0" sigma="0.0" length="4.5" maxSpeed="7.867439019729857" /><vType id="vType_car_12.915345953791617" accel="1.0" decel="5.0" sigma="0.0" length="4.5" maxSpeed="3.587596098275449" /><vType id="vType_car_25.605253455162334" accel="1.0" decel="5.0" sigma="0.0" length="4.5" maxSpeed="7.112570404211759" /><vType id="vType_truck_31.369958521027968" accel="1.0" decel="5.0" sigma="0.0" length="8" maxSpeed="8.713877366952213" /><vType id="vType_car_6.924199985418237" accel="1.0" decel="5.0" sigma="0.0" length="4.5" maxSpeed="1.923388884838399" /><vType id="vType_car_4.1978216968958435" accel="1.0" decel="5.0" sigma="0.0" length="4.5" maxSpeed="1.1660615824710676" /><vType id="vType_car_28.740891013432886" accel="1.0" decel="5.0" sigma="0.0" length="4.5" maxSpeed="7.98358083706469" /><vType id="vType_car_6.524400259043372" accel="1.0" decel="5.0" sigma="0.0" length="4.5" maxSpeed="1.8123334052898254" /><vType id="vType_truck_23.110999894890245" accel="1.0" decel="5.0" sigma="0.0" length="8" maxSpeed="6.419722193025068" /><vType id="vType_car_30.995136205558747" accel="1.0" decel="5.0" sigma="0.0" length="4.5" maxSpeed="8.609760057099653" /><vType id="vType_car_18.978902933739892" accel="1.0" decel="5.0" sigma="0.0" length="4.5" maxSpeed="5.271917481594414" /><vType id="vType_car_22.446898044586153" accel="1.0" decel="5.0" sigma="0.0" length="4.5" maxSpeed="6.235249456829487" /><vType id="vType_car_20.10032351366343" accel="1.0" decel="5.0" sigma="0.0" length="4.5" maxSpeed="5.583423198239841" /><vType id="vType_car_7.443427019978927" accel="1.0" decel="5.0" sigma="0.0" length="4.5" maxSpeed="2.067618616660813" /><vType id="vType_car_8.727760751431667" accel="1.0" decel="5.0" sigma="0.0" length="4.5" maxSpeed="2.424377986508796" /><vType id="vType_car_23.454979504925998" accel="1.0" decel="5.0" sigma="0.0" length="4.5" maxSpeed="6.515272084701666" /><vType id="vType_car_4.942475539224619" accel="1.0" decel="5.0" sigma="0.0" length="4.5" maxSpeed="1.3729098720068384" /><vType id="vType_car_3.777726317540352" accel="1.0" decel="5.0" sigma="0.0" length="4.5" maxSpeed="1.0493684215389867" /><vType id="vType_car_12.87754873981272" accel="1.0" decel="5.0" sigma="0.0" length="4.5" maxSpeed="3.5770968721702" /><vType id="vType_truck_26.054013056780118" accel="1.0" decel="5.0" sigma="0.0" length="8" maxSpeed="7.237225849105588" /><vType id="vType_car_21.45471395160847" accel="1.0" decel="5.0" sigma="0.0" length="4.5" maxSpeed="5.959642764335686" /><vType id="vType_car_7.373266849557495" accel="1.0" decel="5.0" sigma="0.0" length="4.5" maxSpeed="2.048129680432637" /><vType id="vType_car_15.416921569365687" accel="1.0" decel="5.0" sigma="0.0" length="4.5" maxSpeed="4.28247821371269" /><vType id="vType_car_20.004549086743086" accel="1.0" decel="5.0" sigma="0.0" length="4.5" maxSpeed="5.556819190761968" /><vType id="vType_car_28.30556611631043" accel="1.0" decel="5.0" sigma="0.0" length="4.5" maxSpeed="7.862657254530675" /><vType id="vType_car_21.715497252482688" accel="1.0" decel="5.0" sigma="0.0" length="4.5" maxSpeed="6.0320825701340794" /><vType id="vType_car_21.213778761935874" accel="1.0" decel="5.0" sigma="0.0" length="4.5" maxSpeed="5.892716322759965" /><vType id="vType_car_30.098338061730637" accel="1.0" decel="5.0" sigma="0.0" length="4.5" maxSpeed="8.360649461591843" /><vType id="vType_car_24.976168135756694" accel="1.0" decel="5.0" sigma="0.0" length="4.5" maxSpeed="6.937824482154637" /><vType id="vType_car_43.90624594872073" accel="1.0" decel="5.0" sigma="0.0" length="4.5" maxSpeed="12.196179430200203" /><vType id="vType_car_23.482775989585992" accel="1.0" decel="5.0" sigma="0.0" length="4.5" maxSpeed="6.522993330440553" /><vType id="vType_car_61.60268400681699" accel="1.0" decel="5.0" sigma="0.0" length="4.5" maxSpeed="17.111856668560275" /><vType id="vType_car_26.041018902348757" accel="1.0" decel="5.0" sigma="0.0" length="4.5" maxSpeed="7.233616361763543" /><vType id="vType_car_29.17886563339908" accel="1.0" decel="5.0" sigma="0.0" length="4.5" maxSpeed="8.105240453721967" /><vType id="vType_car_46.570358963121706" accel="1.0" decel="5.0" sigma="0.0" length="4.5" maxSpeed="12.936210823089363" /><vType id="vType_car_52.035196079944946" accel="1.0" decel="5.0" sigma="0.0" length="4.5" maxSpeed="14.45422113331804" /><vType id="vType_car_9.46860423921118" accel="1.0" decel="5.0" sigma="0.0" length="4.5" maxSpeed="2.6301678442253276" /><vType id="vType_car_69.41454548161882" accel="1.0" decel="5.0" sigma="0.0" length="4.5" maxSpeed="19.28181818933856" /><vType id="vType_car_8.991699743193385" accel="1.0" decel="5.0" sigma="0.0" length="4.5" maxSpeed="2.4976943731092733" /><vType id="vType_car_43.83325633632508" accel="1.0" decel="5.0" sigma="0.0" length="4.5" maxSpeed="12.175904537868076" /><vType id="vType_car_8.33206659235075" accel="1.0" decel="5.0" sigma="0.0" length="4.5" maxSpeed="2.3144629423196528" /><vType id="vType_car_17.35662007386392" accel="1.0" decel="5.0" sigma="0.0" length="4.5" maxSpeed="4.821283353851088" /><vType id="vType_car_28.192049155330164" accel="1.0" decel="5.0" sigma="0.0" length="4.5" maxSpeed="7.8311247653694895" /><vType id="vType_car_21.410419406795686" accel="1.0" decel="5.0" sigma="0.0" length="4.5" maxSpeed="5.947338724109913" /><vType id="vType_car_17.349562532206203" accel="1.0" decel="5.0" sigma="0.0" length="4.5" maxSpeed="4.819322925612834" /><vType id="vType_car_9.12471204922088" accel="1.0" decel="5.0" sigma="0.0" length="4.5" maxSpeed="2.534642235894689" /><vType id="vType_car_14.15870967884741" accel="1.0" decel="5.0" sigma="0.0" length="4.5" maxSpeed="3.9329749107909473" /><vType id="vType_car_12.750858923947016" accel="1.0" decel="5.0" sigma="0.0" length="4.5" maxSpeed="3.541905256651949" /><vType id="vType_car_21.685037318540637" accel="1.0" decel="5.0" sigma="0.0" length="4.5" maxSpeed="6.023621477372399" /><vType id="vType_car_15.426708890623614" accel="1.0" decel="5.0" sigma="0.0" length="4.5" maxSpeed="4.285196914062115" /><vType id="vType_car_16.804642502345946" accel="1.0" decel="5.0" sigma="0.0" length="4.5" maxSpeed="4.667956250651652" /><vType id="vType_car_30.877458638113314" accel="1.0" decel="5.0" sigma="0.0" length="4.5" maxSpeed="8.577071843920365" /><vType id="vType_car_19.460715945044576" accel="1.0" decel="5.0" sigma="0.0" length="4.5" maxSpeed="5.405754429179049" /><vType id="vType_car_22.008494191410872" accel="1.0" decel="5.0" sigma="0.0" length="4.5" maxSpeed="6.113470608725242" /><vType id="vType_car_16.37480877290722" accel="1.0" decel="5.0" sigma="0.0" length="4.5" maxSpeed="4.548557992474227" /><vType id="vType_car_30.34018941397985" accel="1.0" decel="5.0" sigma="0.0" length="4.5" maxSpeed="8.427830392772181" /><vType id="vType_car_16.882254786405127" accel="1.0" decel="5.0" sigma="0.0" length="4.5" maxSpeed="4.689515218445869" /><vType id="vType_car_28.89025121146877" accel="1.0" decel="5.0" sigma="0.0" length="4.5" maxSpeed="8.025069780963547" /><vType id="vType_car_13.67547002313976" accel="1.0" decel="5.0" sigma="0.0" length="4.5" maxSpeed="3.7987416730943773" /><vType id="vType_car_9.668044214674033" accel="1.0" decel="5.0" sigma="0.0" length="4.5" maxSpeed="2.6855678374094536" /><vType id="vType_car_21.159453930910832" accel="1.0" decel="5.0" sigma="0.0" length="4.5" maxSpeed="5.877626091919676" /><vType id="vType_car_10.941918234663408" accel="1.0" decel="5.0" sigma="0.0" length="4.5" maxSpeed="3.0394217318509464" /><vType id="vType_car_19.388727556610416" accel="1.0" decel="5.0" sigma="0.0" length="4.5" maxSpeed="5.385757654614005" /><vType id="vType_car_16.11370227960285" accel="1.0" decel="5.0" sigma="0.0" length="4.5" maxSpeed="4.476028411000792" /><vType id="vType_car_29.248294392089765" accel="1.0" decel="5.0" sigma="0.0" length="4.5" maxSpeed="8.124526220024935" /><vType id="vType_car_15.149655461203269" accel="1.0" decel="5.0" sigma="0.0" length="4.5" maxSpeed="4.208237628112019" /><vType id="vType_car_6.894324069079439" accel="1.0" decel="5.0" sigma="0.0" length="4.5" maxSpeed="1.915090019188733" /><vType id="vType_car_21.94976136000113" accel="1.0" decel="5.0" sigma="0.0" length="4.5" maxSpeed="6.097155933333647" /><vType id="vType_car_10.75198442638392" accel="1.0" decel="5.0" sigma="0.0" length="4.5" maxSpeed="2.9866623406622" /><vType id="vType_car_17.038774564512075" accel="1.0" decel="5.0" sigma="0.0" length="4.5" maxSpeed="4.7329929345866875" /><vType id="vType_car_2.8975675434111174" accel="1.0" decel="5.0" sigma="0.0" length="4.5" maxSpeed="0.8048798731697548" /><vType id="vType_car_10.794507798600398" accel="1.0" decel="5.0" sigma="0.0" length="4.5" maxSpeed="2.9984743885001106" /><vType id="vType_car_9.996859003521154" accel="1.0" decel="5.0" sigma="0.0" length="4.5" maxSpeed="2.776905278755876" /><vType id="vType_car_9.073368690561939" accel="1.0" decel="5.0" sigma="0.0" length="4.5" maxSpeed="2.5203801918227606" /><vType id="vType_truck_3.5583980941449687" accel="1.0" decel="5.0" sigma="0.0" length="8" maxSpeed="0.9884439150402691" /><vType id="vType_car_32.600904202353334" accel="1.0" decel="5.0" sigma="0.0" length="4.5" maxSpeed="9.055806722875927" /><vType id="vType_car_25.897862428436646" accel="1.0" decel="5.0" sigma="0.0" length="4.5" maxSpeed="7.193850674565735" /><vType id="vType_car_12.933560754726349" accel="1.0" decel="5.0" sigma="0.0" length="4.5" maxSpeed="3.5926557652017634" /><vType id="vType_car_21.02168859283721" accel="1.0" decel="5.0" sigma="0.0" length="4.5" maxSpeed="5.839357942454781" /><vType id="vType_car_5.5896254916359" accel="1.0" decel="5.0" sigma="0.0" length="4.5" maxSpeed="1.5526737476766388" /><vType id="vType_car_12.875134001524573" accel="1.0" decel="5.0" sigma="0.0" length="4.5" maxSpeed="3.5764261115346034" /><vType id="vType_truck_11.946219540188013" accel="1.0" decel="5.0" sigma="0.0" length="8" maxSpeed="3.3183943167188925" /><vType id="vType_car_21.726264176314622" accel="1.0" decel="5.0" sigma="0.0" length="4.5" maxSpeed="6.035073382309617" /><vType id="vType_car_12.736429048874628" accel="1.0" decel="5.0" sigma="0.0" length="4.5" maxSpeed="3.53789695802073" /><vType id="vType_car_4.160961854769159" accel="1.0" decel="5.0" sigma="0.0" length="4.5" maxSpeed="1.1558227374358774" /><vType id="vType_car_25.46189697236015" accel="1.0" decel="5.0" sigma="0.0" length="4.5" maxSpeed="7.07274915898893" /><vType id="vType_car_4.72215789692544" accel="1.0" decel="5.0" sigma="0.0" length="4.5" maxSpeed="1.3117105269237332" /><vType id="vType_car_23.785031378309096" accel="1.0" decel="5.0" sigma="0.0" length="4.5" maxSpeed="6.606953160641416" /><vType id="vType_car_17.467796362196776" accel="1.0" decel="5.0" sigma="0.0" length="4.5" maxSpeed="4.852165656165771" /><vType id="vType_car_20.73428829912996" accel="1.0" decel="5.0" sigma="0.0" length="4.5" maxSpeed="5.7595245275361" /><vType id="vType_car_24.012886764483294" accel="1.0" decel="5.0" sigma="0.0" length="4.5" maxSpeed="6.670246323467581" /><vType id="vType_car_24.349380803071476" accel="1.0" decel="5.0" sigma="0.0" length="4.5" maxSpeed="6.763716889742076" /><vType id="vType_car_16.72347203609055" accel="1.0" decel="5.0" sigma="0.0" length="4.5" maxSpeed="4.645408898914041" /><vType id="vType_car_5.342511793199336" accel="1.0" decel="5.0" sigma="0.0" length="4.5" maxSpeed="1.484031053666482" /><vType id="vType_car_22.37816885682754" accel="1.0" decel="5.0" sigma="0.0" length="4.5" maxSpeed="6.216158015785427" /><vType id="vType_car_3.9733245019977255" accel="1.0" decel="5.0" sigma="0.0" length="4.5" maxSpeed="1.1037012505549237" /><vType id="vType_car_17.287718570483836" accel="1.0" decel="5.0" sigma="0.0" length="4.5" maxSpeed="4.802144047356621" /><vType id="vType_car_26.19748253544351" accel="1.0" decel="5.0" sigma="0.0" length="4.5" maxSpeed="7.277078482067641" /><vType id="vType_car_13.994264391051157" accel="1.0" decel="5.0" sigma="0.0" length="4.5" maxSpeed="3.887295664180877" /><vType id="vType_car_23.61421971846036" accel="1.0" decel="5.0" sigma="0.0" length="4.5" maxSpeed="6.5595054773501005" /><vType id="vType_car_4.44129663377621" accel="1.0" decel="5.0" sigma="0.0" length="4.5" maxSpeed="1.2336935093822805" /><vType id="vType_car_4.018462544564811" accel="1.0" decel="5.0" sigma="0.0" length="4.5" maxSpeed="1.1162395957124474" /><vType id="vType_car_20.689910161690857" accel="1.0" decel="5.0" sigma="0.0" length="4.5" maxSpeed="5.747197267136349" /><vType id="vType_car_17.777701148250454" accel="1.0" decel="5.0" sigma="0.0" length="4.5" maxSpeed="4.93825031895846" /><vType id="vType_car_3.893868151291498" accel="1.0" decel="5.0" sigma="0.0" length="4.5" maxSpeed="1.0816300420254161" /><vType id="vType_car_19.33174616817706" accel="1.0" decel="5.0" sigma="0.0" length="4.5" maxSpeed="5.369929491160294" /><vType id="vType_car_16.070486777400337" accel="1.0" decel="5.0" sigma="0.0" length="4.5" maxSpeed="4.464024104833427" /><vType id="vType_car_20.832375176338633" accel="1.0" decel="5.0" sigma="0.0" length="4.5" maxSpeed="5.786770882316287" /><vType id="vType_car_15.245403965792326" accel="1.0" decel="5.0" sigma="0.0" length="4.5" maxSpeed="4.234834434942313" /><vType id="vType_car_3.2372419349893558" accel="1.0" decel="5.0" sigma="0.0" length="4.5" maxSpeed="0.8992338708303765" /><vType id="vType_car_31.418322003187125" accel="1.0" decel="5.0" sigma="0.0" length="4.5" maxSpeed="8.727311667551978" /><vType id="vType_car_13.473676901605732" accel="1.0" decel="5.0" sigma="0.0" length="4.5" maxSpeed="3.742688028223814" /><vType id="vType_car_4.269587079743912" accel="1.0" decel="5.0" sigma="0.0" length="4.5" maxSpeed="1.1859964110399757" /><vType id="vType_car_4.114534826438385" accel="1.0" decel="5.0" sigma="0.0" length="4.5" maxSpeed="1.1429263406773291" /><vType id="vType_car_31.547290249254313" accel="1.0" decel="5.0" sigma="0.0" length="4.5" maxSpeed="8.76313618034842" /><vType id="vType_car_3.7441874846282186" accel="1.0" decel="5.0" sigma="0.0" length="4.5" maxSpeed="1.040052079063394" /><vType id="vType_car_3.9351315807712" accel="1.0" decel="5.0" sigma="0.0" length="4.5" maxSpeed="1.0930921057697778" /><vType id="vType_car_26.69561669069013" accel="1.0" decel="5.0" sigma="0.0" length="4.5" maxSpeed="7.415449080747258" /><vType id="vType_car_4.197436441132253" accel="1.0" decel="5.0" sigma="0.0" length="4.5" maxSpeed="1.1659545669811815" /><vType id="vType_car_11.296077223658125" accel="1.0" decel="5.0" sigma="0.0" length="4.5" maxSpeed="3.1377992287939236" /><vType id="vType_car_38.550278962661125" accel="1.0" decel="5.0" sigma="0.0" length="4.5" maxSpeed="10.708410822961424" /><vType id="vType_car_13.943499557712094" accel="1.0" decel="5.0" sigma="0.0" length="4.5" maxSpeed="3.8731943215866926" /><vType id="vType_car_2.280059527684922" accel="1.0" decel="5.0" sigma="0.0" length="4.5" maxSpeed="0.6333498688013672" /><vType id="vType_car_38.95969291157673" accel="1.0" decel="5.0" sigma="0.0" length="4.5" maxSpeed="10.822136919882425" /><vType id="vType_car_42.8317231884229" accel="1.0" decel="5.0" sigma="0.0" length="4.5" maxSpeed="11.897700885673027" /><vType id="vType_car_23.940705092852514" accel="1.0" decel="5.0" sigma="0.0" length="4.5" maxSpeed="6.650195859125699" /><vType id="vType_car_21.76659198120986" accel="1.0" decel="5.0" sigma="0.0" length="4.5" maxSpeed="6.046275550336072" /><vType id="vType_car_3.415295099684272" accel="1.0" decel="5.0" sigma="0.0" length="4.5" maxSpeed="0.9486930832456311" /><vType id="vType_car_14.556293160046575" accel="1.0" decel="5.0" sigma="0.0" length="4.5" maxSpeed="4.0434147666796045" /><vType id="vType_car_4.090683412672149" accel="1.0" decel="5.0" sigma="0.0" length="4.5" maxSpeed="1.1363009479644859" /><vType id="vType_truck_5.07650274754973" accel="1.0" decel="5.0" sigma="0.0" length="8" maxSpeed="1.4101396520971472" /><vType id="vType_car_23.321934215567126" accel="1.0" decel="5.0" sigma="0.0" length="4.5" maxSpeed="6.4783150598797565" /><vType id="vType_car_32.32800641894404" accel="1.0" decel="5.0" sigma="0.0" length="4.5" maxSpeed="8.980001783040011" /><vType id="vType_car_24.64711312223927" accel="1.0" decel="5.0" sigma="0.0" length="4.5" maxSpeed="6.84642031173313" /><vType id="vType_car_4.560119055369844" accel="1.0" decel="5.0" sigma="0.0" length="4.5" maxSpeed="1.2666997376027345" /><vType id="vType_car_41.974300980267444" accel="1.0" decel="5.0" sigma="0.0" length="4.5" maxSpeed="11.65952805007429" /><vType id="vType_car_26.215999080397044" accel="1.0" decel="5.0" sigma="0.0" length="4.5" maxSpeed="7.282221966776956" /><vType id="vType_car_2.6821856854536503" accel="1.0" decel="5.0" sigma="0.0" length="4.5" maxSpeed="0.7450515792926806" /><vType id="vType_car_36.31000551635198" accel="1.0" decel="5.0" sigma="0.0" length="4.5" maxSpeed="10.086112643431106" /><vType id="vType_car_27.078808069338585" accel="1.0" decel="5.0" sigma="0.0" length="4.5" maxSpeed="7.521891130371829" /><vType id="vType_car_33.55711268383611" accel="1.0" decel="5.0" sigma="0.0" length="4.5" maxSpeed="9.321420189954475" /><vType id="vType_car_16.223305608203766" accel="1.0" decel="5.0" sigma="0.0" length="4.5" maxSpeed="4.506473780056601" /><vType id="vType_car_54.24047646903471" accel="1.0" decel="5.0" sigma="0.0" length="4.5" maxSpeed="15.066799019176308" /><vType id="vType_car_58.09390179206324" accel="1.0" decel="5.0" sigma="0.0" length="4.5" maxSpeed="16.137194942239788" /><vType id="vType_car_40.20921068744657" accel="1.0" decel="5.0" sigma="0.0" length="4.5" maxSpeed="11.16922519095738" /><vType id="vType_car_47.1674409902422" accel="1.0" decel="5.0" sigma="0.0" length="4.5" maxSpeed="13.102066941733943" /><vType id="vType_car_37.53316097956778" accel="1.0" decel="5.0" sigma="0.0" length="4.5" maxSpeed="10.42587804987994" /><vType id="vType_car_52.73193713290709" accel="1.0" decel="5.0" sigma="0.0" length="4.5" maxSpeed="14.647760314696415" /><vType id="vType_car_48.868362871747394" accel="1.0" decel="5.0" sigma="0.0" length="4.5" maxSpeed="13.574545242152054" /><vType id="vType_car_42.51462627007759" accel="1.0" decel="5.0" sigma="0.0" length="4.5" maxSpeed="11.809618408354886" /><vType id="vType_car_28.57614315782965" accel="1.0" decel="5.0" sigma="0.0" length="4.5" maxSpeed="7.93781754384157" /><vType id="vType_car_39.99443191337448" accel="1.0" decel="5.0" sigma="0.0" length="4.5" maxSpeed="11.1095644203818" /><vType id="vType_car_42.04555078317816" accel="1.0" decel="5.0" sigma="0.0" length="4.5" maxSpeed="11.679319661993933" /><vType id="vType_car_28.818566885457614" accel="1.0" decel="5.0" sigma="0.0" length="4.5" maxSpeed="8.00515746818267" /><vType id="vType_car_57.39246177109592" accel="1.0" decel="5.0" sigma="0.0" length="4.5" maxSpeed="15.942350491971087" /><vType id="vType_car_46.66656697117693" accel="1.0" decel="5.0" sigma="0.0" length="4.5" maxSpeed="12.962935269771368" /><vType id="vType_car_8.265321341656051" accel="1.0" decel="5.0" sigma="0.0" length="4.5" maxSpeed="2.2959225949044586" /><vType id="vType_car_16.750340036242136" accel="1.0" decel="5.0" sigma="0.0" length="4.5" maxSpeed="4.652872232289482" /><vType id="vType_truck_2.823400639409981" accel="1.0" decel="5.0" sigma="0.0" length="8" maxSpeed="0.7842779553916613" /><vType id="vType_truck_18.2410471338873" accel="1.0" decel="5.0" sigma="0.0" length="8" maxSpeed="5.066957537190916" /><vType id="vType_car_5.961442059179646" accel="1.0" decel="5.0" sigma="0.0" length="4.5" maxSpeed="1.6559561275499015" /><vType id="vType_car_6.903098086391144" accel="1.0" decel="5.0" sigma="0.0" length="4.5" maxSpeed="1.9175272462197621" /><vType id="vType_car_27.39639984179525" accel="1.0" decel="5.0" sigma="0.0" length="4.5" maxSpeed="7.610111067165347" /><vType id="vType_car_16.346132227605622" accel="1.0" decel="5.0" sigma="0.0" length="4.5" maxSpeed="4.540592285446006" /><vType id="vType_car_11.187889921981254" accel="1.0" decel="5.0" sigma="0.0" length="4.5" maxSpeed="3.107747200550348" /><vType id="vType_car_6.306039547308675" accel="1.0" decel="5.0" sigma="0.0" length="4.5" maxSpeed="1.7516776520301875" /><vType id="vType_car_3.9834951039427504" accel="1.0" decel="5.0" sigma="0.0" length="4.5" maxSpeed="1.106526417761875" /><vType id="vType_car_4.403640507803945" accel="1.0" decel="5.0" sigma="0.0" length="4.5" maxSpeed="1.2232334743899846" /><route id="route_north_to_east" edges="north_to_center center_to_east" /><route id="route_north_to_south" edges="north_to_center center_to_south" /><route id="route_north_to_west" edges="north_to_center center_to_west" /><route id="route_east_to_west" edges="east_to_center center_to_west" /><route id="route_east_to_south" edges="east_to_center center_to_south" /><route id="route_east_to_north" edges="east_to_center center_to_north" /><route id="route_south_to_west" edges="south_to_center center_to_west" /><route id="route_south_to_north" edges="south_to_center center_to_north" /><route id="route_south_to_east" edges="south_to_center center_to_east" /><route id="route_west_to_south" edges="west_to_center center_to_south" /><route id="route_west_to_north" edges="west_to_center center_to_north" /><route id="route_west_to_east" edges="west_to_center center_to_east" /><vehicle id="veh1433" type="vType_car_11.256407716919442" route="route_west_to_north" depart="0.03" /><vehicle id="veh1467" type="vType_car_16.619082214100395" route="route_north_to_east" depart="0.03" /><vehicle id="veh1462" type="vType_car_24.57174687183808" route="route_north_to_east" depart="0.03" /><vehicle id="veh1466" type="vType_car_41.57731330844053" route="route_north_to_south" depart="0.03" /><vehicle id="veh1469" type="vType_car_27.902296544760013" route="route_north_to_south" depart="0.07" /><vehicle id="veh1472" type="vType_car_15.699343144653328" route="route_north_to_east" depart="1.33" /><vehicle id="veh1473" type="vType_car_29.163488133224234" route="route_north_to_south" depart="1