<?xml version='1.0' encoding='utf-8'?>
<routes><vType id="vType_car_3.369279631757085" accel="1.0" decel="5.0" sigma="0.0" length="4.5" maxSpeed="0.9359110088214124" /><vType id="vType_car_12.688271089514446" accel="1.0" decel="5.0" sigma="0.0" length="4.5" maxSpeed="3.524519747087346" /><vType id="vType_car_15.101721113919027" accel="1.0" decel="5.0" sigma="0.0" length="4.5" maxSpeed="4.194922531644174" /><vType id="vType_car_15.2456469118258" accel="1.0" decel="5.0" sigma="0.0" length="4.5" maxSpeed="4.234901919951611" /><vType id="vType_car_4.882377451613263" accel="1.0" decel="5.0" sigma="0.0" length="4.5" maxSpeed="1.356215958781462" /><vType id="vType_car_10.243573133023784" accel="1.0" decel="5.0" sigma="0.0" length="4.5" maxSpeed="2.8454369813954954" /><vType id="vType_car_14.54417015622951" accel="1.0" decel="5.0" sigma="0.0" length="4.5" maxSpeed="4.040047265619308" /><vType id="vType_car_2.8845109101253987" accel="1.0" decel="5.0" sigma="0.0" length="4.5" maxSpeed="0.8012530305903885" /><vType id="vType_car_10.661133537942119" accel="1.0" decel="5.0" sigma="0.0" length="4.5" maxSpeed="2.9614259827616998" /><vType id="vType_car_10.395465103719584" accel="1.0" decel="5.0" sigma="0.0" length="4.5" maxSpeed="2.887629195477662" /><vType id="vType_car_11.51770201075688" accel="1.0" decel="5.0" sigma="0.0" length="4.5" maxSpeed="3.1993616696546887" /><vType id="vType_car_19.51845875151214" accel="1.0" decel="5.0" sigma="0.0" length="4.5" maxSpeed="5.421794097642261" /><vType id="vType_car_9.037292464729457" accel="1.0" decel="5.0" sigma="0.0" length="4.5" maxSpeed="2.510359017980405" /><vType id="vType_car_2.7116214211707153" accel="1.0" decel="5.0" sigma="0.0" length="4.5" maxSpeed="0.7532281725474209" /><vType id="vType_car_2.9973915554519595" accel="1.0" decel="5.0" sigma="0.0" length="4.5" maxSpeed="0.8326087654033221" /><vType id="vType_car_2.766589646096017" accel="1.0" decel="5.0" sigma="0.0" length="4.5" maxSpeed="0.7684971239155602" /><vType id="vType_car_2.5990812886175463" accel="1.0" decel="5.0" sigma="0.0" length="4.5" maxSpeed="0.721967024615985" /><vType id="vType_car_9.264112186154906" accel="1.0" decel="5.0" sigma="0.0" length="4.5" maxSpeed="2.57336449615414" /><vType id="vType_car_53.62369082629405" accel="1.0" decel="5.0" sigma="0.0" length="4.5" maxSpeed="14.89546967397057" /><vType id="vType_car_0.13832948230480085" accel="1.0" decel="5.0" sigma="0.0" length="4.5" maxSpeed="0.03842485619577801" /><vType id="vType_truck_5.436133609458569" accel="1.0" decel="5.0" sigma="0.0" length="8" maxSpeed="1.5100371137384914" /><vType id="vType_car_6.107933280883211" accel="1.0" decel="5.0" sigma="0.0" length="4.5" maxSpeed="1.6966481335786696" /><vType id="vType_car_33.50260235317256" accel="1.0" decel="5.0" sigma="0.0" length="4.5" maxSpeed="9.306278431436823" /><vType id="vType_car_2.6440182283398954" accel="1.0" decel="5.0" sigma="0.0" length="4.5" maxSpeed="0.7344495078721932" /><vType id="vType_car_8.08068167084237" accel="1.0" decel="5.0" sigma="0.0" length="4.5" maxSpeed="2.244633797456214" /><vType id="vType_car_43.046206340387656" accel="1.0" decel="5.0" sigma="0.0" length="4.5" maxSpeed="11.957279538996572" /><vType id="vType_car_18.783083770226455" accel="1.0" decel="5.0" sigma="0.0" length="4.5" maxSpeed="5.217523269507349" /><vType id="vType_car_9.347612112271463" accel="1.0" decel="5.0" sigma="0.0" length="4.5" maxSpeed="2.5965589200754065" /><vType id="vType_car_10.389671564364273" accel="1.0" decel="5.0" sigma="0.0" length="4.5" maxSpeed="2.8860198789900755" /><vType id="vType_car_3.3395691225629927" accel="1.0" decel="5.0" sigma="0.0" length="4.5" maxSpeed="0.9276580896008313" /><vType id="vType_car_62.288770776762576" accel="1.0" decel="5.0" sigma="0.0" length="4.5" maxSpeed="17.302436326878492" /><vType id="vType_car_7.873777583961858" accel="1.0" decel="5.0" sigma="0.0" length="4.5" maxSpeed="2.187160439989405" /><vType id="vType_car_6.100832238223228" accel="1.0" decel="5.0" sigma="0.0" length="4.5" maxSpeed="1.6946756217286745" /><vType id="vType_truck_5.577072302947763" accel="1.0" decel="5.0" sigma="0.0" length="8" maxSpeed="1.549186750818823" /><vType id="vType_car_6.283384587192804" accel="1.0" decel="5.0" sigma="0.0" length="4.5" maxSpeed="1.7453846075535564" /><vType id="vType_car_40.69492978860179" accel="1.0" decel="5.0" sigma="0.0" length="4.5" maxSpeed="11.304147163500497" /><vType id="vType_car_21.04314301567974" accel="1.0" decel="5.0" sigma="0.0" length="4.5" maxSpeed="5.845317504355483" /><vType id="vType_car_2.759703679559759" accel="1.0" decel="5.0" sigma="0.0" length="4.5" maxSpeed="0.7665843554332664" /><vType id="vType_car_14.106894591547347" accel="1.0" decel="5.0" sigma="0.0" length="4.5" maxSpeed="3.918581830985374" /><vType id="vType_car_5.211589507182367" accel="1.0" decel="5.0" sigma="0.0" length="4.5" maxSpeed="1.4476637519951019" /><vType id="vType_car_8.579737407227647" accel="1.0" decel="5.0" sigma="0.0" length="4.5" maxSpeed="2.3832603908965684" /><vType id="vType_car_8.834209133185075" accel="1.0" decel="5.0" sigma="0.0" length="4.5" maxSpeed="2.4539469814402985" /><vType id="vType_car_9.124210678428836" accel="1.0" decel="5.0" sigma="0.0" length="4.5" maxSpeed="2.534502966230232" /><vType id="vType_car_7.823628381316726" accel="1.0" decel="5.0" sigma="0.0" length="4.5" maxSpeed="2.173230105921313" /><vType id="vType_car_8.264872040243347" accel="1.0" decel="5.0" sigma="0.0" length="4.5" maxSpeed="2.2957977889564853" /><vType id="vType_car_16.649488723427563" accel="1.0" decel="5.0" sigma="0.0" length="4.5" maxSpeed="4.624857978729879" /><vType id="vType_car_1.8991280573861278" accel="1.0" decel="5.0" sigma="0.0" length="4.5" maxSpeed="0.5275355714961466" /><vType id="vType_car_6.37109196315494" accel="1.0" decel="5.0" sigma="0.0" length="4.5" maxSpeed="1.7697477675430386" /><vType id="vType_car_27.924858229566404" accel="1.0" decel="5.0" sigma="0.0" length="4.5" maxSpeed="7.756905063768445" /><vType id="vType_car_3.5978463816932638" accel="1.0" decel="5.0" sigma="0.0" length="4.5" maxSpeed="0.9994017726925732" /><vType id="vType_car_1.9366127522672119" accel="1.0" decel="5.0" sigma="0.0" length="4.5" maxSpeed="0.5379479867408922" /><vType id="vType_car_22.30495881060015" accel="1.0" decel="5.0" sigma="0.0" length="4.5" maxSpeed="6.195821891833376" /><vType id="vType_car_35.07482217434854" accel="1.0" decel="5.0" sigma="0.0" length="4.5" maxSpeed="9.743006159541261" /><vType id="vType_car_21.412582665894373" accel="1.0" decel="5.0" sigma="0.0" length="4.5" maxSpeed="5.947939629415104" /><vType id="vType_car_10.647620788869999" accel="1.0" decel="5.0" sigma="0.0" length="4.5" maxSpeed="2.9576724413527775" /><vType id="vType_car_10.307108042970937" accel="1.0" decel="5.0" sigma="0.0" length="4.5" maxSpeed="2.8630855674919267" /><vType id="vType_car_48.05096315645866" accel="1.0" decel="5.0" sigma="0.0" length="4.5" maxSpeed="13.34748976568296" /><vType id="vType_car_1.8646004046747109" accel="1.0" decel="5.0" sigma="0.0" length="4.5" maxSpeed="0.5179445568540864" /><vType id="vType_car_5.86427690094993" accel="1.0" decel="5.0" sigma="0.0" length="4.5" maxSpeed="1.628965805819425" /><vType id="vType_car_47.82447672443558" accel="1.0" decel="5.0" sigma="0.0" length="4.5" maxSpeed="13.284576867898771" /><vType id="vType_car_3.2560889817722916" accel="1.0" decel="5.0" sigma="0.0" length="4.5" maxSpeed="0.9044691616034143" /><vType id="vType_car_48.047688925302154" accel="1.0" decel="5.0" sigma="0.0" length="4.5" maxSpeed="13.346580257028375" /><vType id="vType_car_2.0749422345720125" accel="1.0" decel="5.0" sigma="0.0" length="4.5" maxSpeed="0.5763728429366701" /><vType id="vType_truck_4.614229163303283" accel="1.0" decel="5.0" sigma="0.0" length="8" maxSpeed="1.2817303231398007" /><vType id="vType_car_3.7465617044944977" accel="1.0" decel="5.0" sigma="0.0" length="4.5" maxSpeed="1.040711584581805" /><vType id="vType_car_12.074088732251328" accel="1.0" decel="5.0" sigma="0.0" length="4.5" maxSpeed="3.3539135367364796" /><vType id="vType_car_16.326353444394105" accel="1.0" decel="5.0" sigma="0.0" length="4.5" maxSpeed="4.535098178998362" /><vType id="vType_car_19.427231428376306" accel="1.0" decel="5.0" sigma="0.0" length="4.5" maxSpeed="5.396453174548974" /><vType id="vType_car_11.827211868861276" accel="1.0" decel="5.0" sigma="0.0" length="4.5" maxSpeed="3.2853366302392435" /><vType id="vType_car_17.168066513805908" accel="1.0" decel="5.0" sigma="0.0" length="4.5" maxSpeed="4.768907364946085" /><vType id="vType_car_16.526759796833144" accel="1.0" decel="5.0" sigma="0.0" length="4.5" maxSpeed="4.590766610231428" /><vType id="vType_car_3.3852178975477947" accel="1.0" decel="5.0" sigma="0.0" length="4.5" maxSpeed="0.9403383048743874" /><vType id="vType_car_9.079893862719436" accel="1.0" decel="5.0" sigma="0.0" length="4.5" maxSpeed="2.5221927396442876" /><vType id="vType_car_4.098090750681675" accel="1.0" decel="5.0" sigma="0.0" length="4.5" maxSpeed="1.138358541856021" /><vType id="vType_car_10.986054503248303" accel="1.0" decel="5.0" sigma="0.0" length="4.5" maxSpeed="3.0516818064578617" /><vType id="vType_car_6.603380928293302" accel="1.0" decel="5.0" sigma="0.0" length="4.5" maxSpeed="1.8342724800814727" /><vType id="vType_car_5.310453932182767" accel="1.0" decel="5.0" sigma="0.0" length="4.5" maxSpeed="1.475126092272991" /><vType id="vType_car_5.118809515478332" accel="1.0" decel="5.0" sigma="0.0" length="4.5" maxSpeed="1.4218915320773144" /><vType id="vType_car_7.314899303445756" accel="1.0" decel="5.0" sigma="0.0" length="4.5" maxSpeed="2.031916473179377" /><vType id="vType_car_5.471390680181494" accel="1.0" decel="5.0" sigma="0.0" length="4.5" maxSpeed="1.5198307444948593" /><vType id="vType_car_5.393119308089727" accel="1.0" decel="5.0" sigma="0.0" length="4.5" maxSpeed="1.4980886966915907" /><route id="route_north_to_east" edges="north_to_center center_to_east" /><route id="route_north_to_south" edges="north_to_center center_to_south" /><route id="route_north_to_west" edges="north_to_center center_to_west" /><route id="route_east_to_west" edges="east_to_center center_to_west" /><route id="route_east_to_south" edges="east_to_center center_to_south" /><route id="route_east_to_north" edges="east_to_center center_to_north" /><route id="route_south_to_west" edges="south_to_center center_to_west" /><route id="route_south_to_north" edges="south_to_center center_to_north" /><route id="route_south_to_east" edges="south_to_center center_to_east" /><route id="route_west_to_south" edges="west_to_center center_to_south" /><route id="route_west_to_north" edges="west_to_center center_to_north" /><route id="route_west_to_east" edges="west_to_center center_to_east" /><vehicle id="veh636" type="vType_car_12.688271089514446" route="route_north_to_south" depart="0.05" /><vehicle id="veh655" type="vType_car_15.101721113919027" route="route_north_to_south" depart="0.05" /><vehicle id="veh661" type="vType_car_15.2456469118258" route="route_north_to_south" depart="0.05" /><vehicle id="veh693" type="vType_car_10.243573133023784" route="route_north_to_south" depart="0.05" /><vehicle id="veh706" type="vType_car_14.54417015622951" route="route_north_to_south" depart="0.05" /><vehicle id="veh725" type="vType_car_10.395465103719584" route="route_east_to_north" depart="0.05" /><vehicle id="veh721" type="vType_car_11.51770201075688" route="route_east_to_north" depart="0.05" /><vehicle id="veh734" type="vType_car_9.037292464729457" route="route_south_to_east" depart="0.05" /><vehicle id="veh739" type="vType_car_53.62369082629405" route="route_west_to_east" depart="0.55" /><vehicle id="veh757" type="vType_car_9.347612112271463" route="route_east_to_north" depart="5.69" /><vehicle id="veh768" type="vType_car_40.69492978860179" route="route_east_to_west" depart="7.61" /><vehicle id="veh769" type="vType_car_21.04314301567974" route="route_east_to_west" depart="9.84" /><vehicle id="veh773" type="vType_car_8.579737407227647" route="route_east_to_north" depart="12.02" /><vehicle id="veh793" type="vType_car_21.412582665894373" route="route_south_to_east" depart="20.08" /><vehicle id="veh794" type="vType_car_10.647620788869999" route="route_east_to_north" depart="20.08" /><vehicle id="veh796" type="vType_car_48.05096315645866" route="route_east_to_west" depart="21.54" /><vehicle id="veh801" type="vType_car_47.82447672443558" route="route_east_to_west" depart="25.82" /><vehicle id="veh808" type="vType_car_48.047688925302154" route="route_east_to_west" depart="33.06" /><vehicle id="veh819" type="vType_car_12.074088732251328" route="route_north_to_east" depart="39.90" /><vehicle id="veh821" type="vType_car_16.326353444394105" route="route_north_to_east" depart="40.58" /><vehicle id="veh824" type="vType_car_19.427231428376306" route="route_north_to_south" depart="43.31" /><vehicle id="veh826" type="vType_car_11.827211868861276" route="route_north_to_west" depart="45.50" /><vehicle id="veh827" type="vType_car_17.168066513805908" route="route_north_to_south" depart="46.36" /><vehicle id="veh828" type="vType_car_16.526759796833144" route="route_north_to_south" depart="46.86" /><vehicle id="veh830" type="vType_car_9.079893862719436" route="route_north_to_west" depart="49.78" /></routes>