<?xml version='1.0' encoding='utf-8'?>
<routes><vType id="vType_car_14.078655872663068" accel="1.0" decel="5.0" sigma="0.0" length="4.5" maxSpeed="3.9107377424064076" /><vType id="vType_car_20.831070257648943" accel="1.0" decel="5.0" sigma="0.0" length="4.5" maxSpeed="5.786408404902484" /><vType id="vType_car_24.170153319168463" accel="1.0" decel="5.0" sigma="0.0" length="4.5" maxSpeed="6.7139314775467955" /><vType id="vType_car_35.65040543905798" accel="1.0" decel="5.0" sigma="0.0" length="4.5" maxSpeed="9.902890399738327" /><vType id="vType_car_30.92475014978704" accel="1.0" decel="5.0" sigma="0.0" length="4.5" maxSpeed="8.590208374940845" /><vType id="vType_car_5.342511793199336" accel="1.0" decel="5.0" sigma="0.0" length="4.5" maxSpeed="1.484031053666482" /><vType id="vType_car_25.96835826023371" accel="1.0" decel="5.0" sigma="0.0" length="4.5" maxSpeed="7.213432850064919" /><vType id="vType_car_65.24532524350134" accel="1.0" decel="5.0" sigma="0.0" length="4.5" maxSpeed="18.12370145652815" /><vType id="vType_car_19.56763990145281" accel="1.0" decel="5.0" sigma="0.0" length="4.5" maxSpeed="5.435455528181336" /><vType id="vType_car_68.33434268836625" accel="1.0" decel="5.0" sigma="0.0" length="4.5" maxSpeed="18.981761857879512" /><vType id="vType_car_12.46606734435371" accel="1.0" decel="5.0" sigma="0.0" length="4.5" maxSpeed="3.4627964845426975" /><vType id="vType_car_69.33764982376806" accel="1.0" decel="5.0" sigma="0.0" length="4.5" maxSpeed="19.260458284380018" /><vType id="vType_car_58.8332911575274" accel="1.0" decel="5.0" sigma="0.0" length="4.5" maxSpeed="16.342580877090942" /><vType id="vType_car_5.959745422049635" accel="1.0" decel="5.0" sigma="0.0" length="4.5" maxSpeed="1.655484839458232" /><vType id="vType_car_13.255504173875837" accel="1.0" decel="5.0" sigma="0.0" length="4.5" maxSpeed="3.6820844927432876" /><vType id="vType_car_37.788463732027274" accel="1.0" decel="5.0" sigma="0.0" length="4.5" maxSpeed="10.496795481118687" /><vType id="vType_car_9.38028515490026" accel="1.0" decel="5.0" sigma="0.0" length="4.5" maxSpeed="2.6056347652500724" /><vType id="vType_car_3.854636335846237" accel="1.0" decel="5.0" sigma="0.0" length="4.5" maxSpeed="1.0707323155128436" /><vType id="vType_car_6.350459358795865" accel="1.0" decel="5.0" sigma="0.0" length="4.5" maxSpeed="1.764016488554407" /><vType id="vType_car_6.122905338516004" accel="1.0" decel="5.0" sigma="0.0" length="4.5" maxSpeed="1.7008070384766678" /><vType id="vType_car_23.205364410638264" accel="1.0" decel="5.0" sigma="0.0" length="4.5" maxSpeed="6.445934558510629" /><vType id="vType_car_32.958423216328995" accel="1.0" decel="5.0" sigma="0.0" length="4.5" maxSpeed="9.155117560091387" /><vType id="vType_car_18.407522979003122" accel="1.0" decel="5.0" sigma="0.0" length="4.5" maxSpeed="5.113200827500867" /><vType id="vType_car_4.013193771019649" accel="1.0" decel="5.0" sigma="0.0" length="4.5" maxSpeed="1.114776047505458" /><vType id="vType_car_17.30716959231711" accel="1.0" decel="5.0" sigma="0.0" length="4.5" maxSpeed="4.807547108976975" /><vType id="vType_car_21.32663496582333" accel="1.0" decel="5.0" sigma="0.0" length="4.5" maxSpeed="5.9240652682842585" /><vType id="vType_car_14.712345368464456" accel="1.0" decel="5.0" sigma="0.0" length="4.5" maxSpeed="4.086762602351238" /><vType id="vType_car_21.21823227520474" accel="1.0" decel="5.0" sigma="0.0" length="4.5" maxSpeed="5.893953409779095" /><vType id="vType_car_16.244401420735684" accel="1.0" decel="5.0" sigma="0.0" length="4.5" maxSpeed="4.512333727982134" /><vType id="vType_car_30.78679594158623" accel="1.0" decel="5.0" sigma="0.0" length="4.5" maxSpeed="8.55188776155173" /><vType id="vType_car_4.141470956980326" accel="1.0" decel="5.0" sigma="0.0" length="4.5" maxSpeed="1.1504085991612016" /><vType id="vType_car_16.72593111999838" accel="1.0" decel="5.0" sigma="0.0" length="4.5" maxSpeed="4.646091977777327" /><vType id="vType_car_27.996307255594" accel="1.0" decel="5.0" sigma="0.0" length="4.5" maxSpeed="7.776752015442778" /><vType id="vType_car_4.72631201624882" accel="1.0" decel="5.0" sigma="0.0" length="4.5" maxSpeed="1.3128644489580055" /><vType id="vType_car_25.971113138621806" accel="1.0" decel="5.0" sigma="0.0" length="4.5" maxSpeed="7.214198094061612" /><vType id="vType_car_13.665350857127025" accel="1.0" decel="5.0" sigma="0.0" length="4.5" maxSpeed="3.795930793646396" /><vType id="vType_car_28.595457125477033" accel="1.0" decel="5.0" sigma="0.0" length="4.5" maxSpeed="7.943182534854731" /><vType id="vType_car_18.84652153863073" accel="1.0" decel="5.0" sigma="0.0" length="4.5" maxSpeed="5.235144871841869" /><vType id="vType_car_11.343944934046203" accel="1.0" decel="5.0" sigma="0.0" length="4.5" maxSpeed="3.151095815012834" /><vType id="vType_car_6.832031133617028" accel="1.0" decel="5.0" sigma="0.0" length="4.5" maxSpeed="1.8977864260047301" /><vType id="vType_car_26.652026342508112" accel="1.0" decel="5.0" sigma="0.0" length="4.5" maxSpeed="7.4033406506966974" /><vType id="vType_car_16.647211250183666" accel="1.0" decel="5.0" sigma="0.0" length="4.5" maxSpeed="4.62422534727324" /><vType id="vType_car_24.452281823975312" accel="1.0" decel="5.0" sigma="0.0" length="4.5" maxSpeed="6.792300506659808" /><vType id="vType_car_22.5740620734452" accel="1.0" decel="5.0" sigma="0.0" length="4.5" maxSpeed="6.270572798179223" /><vType id="vType_car_13.997923483411025" accel="1.0" decel="5.0" sigma="0.0" length="4.5" maxSpeed="3.8883120787252845" /><vType id="vType_car_17.2758816548799" accel="1.0" decel="5.0" sigma="0.0" length="4.5" maxSpeed="4.798856015244416" /><vType id="vType_car_31.000196594372984" accel="1.0" decel="5.0" sigma="0.0" length="4.5" maxSpeed="8.611165720659162" /><vType id="vType_car_16.37430632742232" accel="1.0" decel="5.0" sigma="0.0" length="4.5" maxSpeed="4.548418424283978" /><vType id="vType_car_31.54990526872088" accel="1.0" decel="5.0" sigma="0.0" length="4.5" maxSpeed="8.763862574644689" /><vType id="vType_car_25.008493514634996" accel="1.0" decel="5.0" sigma="0.0" length="4.5" maxSpeed="6.946803754065276" /><vType id="vType_car_18.78329371999367" accel="1.0" decel="5.0" sigma="0.0" length="4.5" maxSpeed="5.21758158888713" /><vType id="vType_car_4.123825221684364" accel="1.0" decel="5.0" sigma="0.0" length="4.5" maxSpeed="1.1455070060234345" /><vType id="vType_car_7.497390768618613" accel="1.0" decel="5.0" sigma="0.0" length="4.5" maxSpeed="2.082608546838504" /><vType id="vType_car_10.005364711799867" accel="1.0" decel="5.0" sigma="0.0" length="4.5" maxSpeed="2.779267975499963" /><vType id="vType_car_4.184233300479785" accel="1.0" decel="5.0" sigma="0.0" length="4.5" maxSpeed="1.1622870279110513" /><vType id="vType_car_23.359704196764337" accel="1.0" decel="5.0" sigma="0.0" length="4.5" maxSpeed="6.488806721323427" /><vType id="vType_car_39.87539293804247" accel="1.0" decel="5.0" sigma="0.0" length="4.5" maxSpeed="11.076498038345129" /><vType id="vType_car_19.969647780344946" accel="1.0" decel="5.0" sigma="0.0" length="4.5" maxSpeed="5.547124383429152" /><vType id="vType_car_6.669893127867201" accel="1.0" decel="5.0" sigma="0.0" length="4.5" maxSpeed="1.8527480910742224" /><vType id="vType_car_4.8370820553874125" accel="1.0" decel="5.0" sigma="0.0" length="4.5" maxSpeed="1.3436339042742813" /><route id="route_north_to_east" edges="north_to_center center_to_east" /><route id="route_north_to_south" edges="north_to_center center_to_south" /><route id="route_north_to_west" edges="north_to_center center_to_west" /><route id="route_east_to_west" edges="east_to_center center_to_west" /><route id="route_east_to_south" edges="east_to_center center_to_south" /><route id="route_east_to_north" edges="east_to_center center_to_north" /><route id="route_south_to_west" edges="south_to_center center_to_west" /><route id="route_south_to_north" edges="south_to_center center_to_north" /><route id="route_south_to_east" edges="south_to_center center_to_east" /><route id="route_west_to_south" edges="west_to_center center_to_south" /><route id="route_west_to_north" edges="west_to_center center_to_north" /><route id="route_west_to_east" edges="west_to_center center_to_east" /><vehicle id="veh1188" type="vType_car_14.078655872663068" route="route_north_to_east" depart="0.03" /><vehicle id="veh1179" type="vType_car_20.831070257648943" route="route_north_to_south" depart="0.03" /><vehicle id="veh1196" type="vType_car_24.170153319168463" route="route_east_to_south" depart="0.03" /><vehicle id="veh1205" type="vType_car_30.92475014978704" route="route_west_to_south" depart="0.03" /><vehicle id="veh1200" type="vType_car_25.96835826023371" route="route_east_to_west" depart="0.20" /><vehicle id="veh1207" type="vType_car_65.24532524350134" route="route_west_to_east" depart="1.43" /><vehicle id="veh1208" type="vType_car_19.56763990145281" route="route_west_to_north" depart="2.37" /><vehicle id="veh1210" type="vType_car_68.33434268836625" route="route_west_to_east" depart="4.07" /><vehicle id="veh1211" type="vType_car_12.46606734435371" route="route_east_to_north" depart="4.60" /><vehicle id="veh1212" type="vType_car_69.33764982376806" route="route_west_to_east" depart="5.60" /><vehicle id="veh1213" type="vType_car_58.8332911575274" route="route_west_to_east" depart="7.10" /><vehicle id="veh1218" type="vType_car_37.788463732027274" route="route_west_to_south" depart="14.18" /><vehicle id="veh1220" type="vType_car_9.38028515490026" route="route_east_to_north" depart="16.54" /><vehicle id="veh1228" type="vType_car_23.205364410638264" route="route_north_to_west" depart="20.88" /><vehicle id="veh1229" type="vType_car_32.958423216328995" route="route_north_to_south" depart="20.91" /><vehicle id="veh1230" type="vType_car_18.407522979003122" route="route_north_to_east" depart="21.61" /><vehicle id="veh1232" type="vType_car_17.30716959231711" route="route_north_to_east" depart="23.08" /><vehicle id="veh1233" type="vType_car_21.32663496582333" route="route_north_to_west" depart="23.75" /><vehicle id="veh1234" type="vType_car_14.712345368464456" route="route_north_to_east" depart="24.88" /><vehicle id="veh1236" type="vType_car_21.21823227520474" route="route_north_to_west" depart="27.75" /><vehicle id="veh1237" type="vType_car_16.244401420735684" route="route_north_to_east" depart="28.18" /><vehicle id="veh1238" type="vType_car_30.78679594158623" route="route_north_to_south" depart="28.25" /><vehicle id="veh1240" type="vType_car_16.72593111999838" route="route_north_to_east" depart="31.45" /><vehicle id="veh1241" type="vType_car_27.996307255594" route="route_north_to_south" depart="31.59" /><vehicle id="veh1244" type="vType_car_25.971113138621806" route="route_north_to_south" depart="33.85" /><vehicle id="veh1245" type="vType_car_13.665350857127025" route="route_north_to_east" depart="33.92" /><vehicle id="veh1248" type="vType_car_28.595457125477033" route="route_north_to_south" depart="36.52" /><vehicle id="veh1250" type="vType_car_18.84652153863073" route="route_north_to_east" depart="36.66" /><vehicle id="veh1251" type="vType_car_11.343944934046203" route="route_east_to_north" depart="36.86" /><vehicle id="veh1255" type="vType_car_26.652026342508112" route="route_north_to_south" depart="38.39" /><vehicle id="veh1256" type="vType_car_16.647211250183666" route="route_north_to_east" depart="39.82" /><vehicle id="veh1257" type="vType_car_24.452281823975312" route="route_north_to_west" depart="40.66" /><vehicle id="veh1260" type="vType_car_22.5740620734452" route="route_north_to_east" depart="41.56" /><vehicle id="veh1261" type="vType_car_13.997923483411025" route="route_east_to_north" depart="41.59" /><vehicle id="veh1262" type="vType_car_17.2758816548799" route="route_north_to_east" depart="41.69" /><vehicle id="veh1265" type="vType_car_31.000196594372984" route="route_north_to_south" depart="45.06" /><vehicle id="veh1267" type="vType_car_16.37430632742232" route="route_north_to_east" depart="46.39" /><vehicle id="veh1273" type="vType_car_31.54990526872088" route="route_north_to_south" depart="46.96" /><vehicle id="veh1275" type="vType_car_25.008493514634996" route="route_north_to_south" depart="47.03" /><vehicle id="veh1278" type="vType_car_18.78329371999367" route="route_north_to_east" depart="48.56" /><vehicle id="veh1285" type="vType_car_23.359704196764337" route="route_north_to_east" depart="52.83" /><vehicle id="veh1286" type="vType_car_39.87539293804247" route="route_north_to_south" depart="54.10" /><vehicle id="veh1287" type="vType_car_19.969647780344946" route="route_north_to_west" depart="55.70" /></routes>