<?xml version='1.0' encoding='utf-8'?>
<routes><vType id="vType_car_18.419785231298558" accel="1.0" decel="5.0" sigma="0.0" length="4.5" maxSpeed="5.116607008694044" /><vType id="vType_car_17.238163749136756" accel="1.0" decel="5.0" sigma="0.0" length="4.5" maxSpeed="4.788378819204654" /><vType id="vType_car_16.810814643878107" accel="1.0" decel="5.0" sigma="0.0" length="4.5" maxSpeed="4.669670734410585" /><vType id="vType_car_13.023749648648451" accel="1.0" decel="5.0" sigma="0.0" length="4.5" maxSpeed="3.6177082357356807" /><vType id="vType_car_19.695059877737872" accel="1.0" decel="5.0" sigma="0.0" length="4.5" maxSpeed="5.470849966038298" /><vType id="vType_car_3.2566875696450053" accel="1.0" decel="5.0" sigma="0.0" length="4.5" maxSpeed="0.9046354360125014" /><vType id="vType_bus_6.2877938639090525" accel="1.0" decel="5.0" sigma="0.0" length="13" maxSpeed="1.7466094066414035" /><vType id="vType_car_22.761448804543022" accel="1.0" decel="5.0" sigma="0.0" length="4.5" maxSpeed="6.322624667928617" /><vType id="vType_car_16.14799030081946" accel="1.0" decel="5.0" sigma="0.0" length="4.5" maxSpeed="4.485552861338738" /><vType id="vType_car_16.888716952330505" accel="1.0" decel="5.0" sigma="0.0" length="4.5" maxSpeed="4.691310264536251" /><vType id="vType_car_10.975383122927672" accel="1.0" decel="5.0" sigma="0.0" length="4.5" maxSpeed="3.0487175341465758" /><vType id="vType_car_38.618933720193276" accel="1.0" decel="5.0" sigma="0.0" length="4.5" maxSpeed="10.727481588942576" /><vType id="vType_car_12.498617169297649" accel="1.0" decel="5.0" sigma="0.0" length="4.5" maxSpeed="3.47183810258268" /><vType id="vType_car_10.608517074513658" accel="1.0" decel="5.0" sigma="0.0" length="4.5" maxSpeed="2.946810298476016" /><vType id="vType_car_45.03623040592149" accel="1.0" decel="5.0" sigma="0.0" length="4.5" maxSpeed="12.510064001644858" /><vType id="vType_car_7.892452110100639" accel="1.0" decel="5.0" sigma="0.0" length="4.5" maxSpeed="2.192347808361289" /><vType id="vType_car_50.38601969615639" accel="1.0" decel="5.0" sigma="0.0" length="4.5" maxSpeed="13.996116582265664" /><vType id="vType_car_47.18185521532789" accel="1.0" decel="5.0" sigma="0.0" length="4.5" maxSpeed="13.106070893146637" /><vType id="vType_car_4.334613264643931" accel="1.0" decel="5.0" sigma="0.0" length="4.5" maxSpeed="1.2040592401788697" /><vType id="vType_bus_4.712688360078904" accel="1.0" decel="5.0" sigma="0.0" length="13" maxSpeed="1.3090801000219177" /><vType id="vType_car_8.005139618460214" accel="1.0" decel="5.0" sigma="0.0" length="4.5" maxSpeed="2.223649894016726" /><vType id="vType_car_9.6673323141067" accel="1.0" decel="5.0" sigma="0.0" length="4.5" maxSpeed="2.685370087251861" /><vType id="vType_car_5.300391915706443" accel="1.0" decel="5.0" sigma="0.0" length="4.5" maxSpeed="1.4723310876962343" /><vType id="vType_car_4.170741575063585" accel="1.0" decel="5.0" sigma="0.0" length="4.5" maxSpeed="1.1585393264065513" /><vType id="vType_car_5.117993752740072" accel="1.0" decel="5.0" sigma="0.0" length="4.5" maxSpeed="1.4216649313166867" /><vType id="vType_car_4.203456417396751" accel="1.0" decel="5.0" sigma="0.0" length="4.5" maxSpeed="1.1676267826102087" /><vType id="vType_truck_3.80996556054963" accel="1.0" decel="5.0" sigma="0.0" length="8" maxSpeed="1.0583237668193417" /><vType id="vType_car_3.7863933435910324" accel="1.0" decel="5.0" sigma="0.0" length="4.5" maxSpeed="1.0517759287752868" /><vType id="vType_car_4.219162595303208" accel="1.0" decel="5.0" sigma="0.0" length="4.5" maxSpeed="1.1719896098064468" /><vType id="vType_car_4.6238152493039895" accel="1.0" decel="5.0" sigma="0.0" length="4.5" maxSpeed="1.2843931248066638" /><vType id="vType_car_5.475430180377967" accel="1.0" decel="5.0" sigma="0.0" length="4.5" maxSpeed="1.5209528278827686" /><vType id="vType_car_3.9642335759670524" accel="1.0" decel="5.0" sigma="0.0" length="4.5" maxSpeed="1.1011759933241811" /><vType id="vType_car_8.976551711580553" accel="1.0" decel="5.0" sigma="0.0" length="4.5" maxSpeed="2.4934865865501536" /><vType id="vType_car_1.8867828398141988" accel="1.0" decel="5.0" sigma="0.0" length="4.5" maxSpeed="0.524106344392833" /><vType id="vType_car_28.57842599610626" accel="1.0" decel="5.0" sigma="0.0" length="4.5" maxSpeed="7.938451665585072" /><vType id="vType_car_35.35749681307588" accel="1.0" decel="5.0" sigma="0.0" length="4.5" maxSpeed="9.821526892521078" /><vType id="vType_car_22.524957224118015" accel="1.0" decel="5.0" sigma="0.0" length="4.5" maxSpeed="6.256932562255004" /><vType id="vType_car_27.24572082327789" accel="1.0" decel="5.0" sigma="0.0" length="4.5" maxSpeed="7.568255784243858" /><vType id="vType_car_94.506903774521" accel="1.0" decel="5.0" sigma="0.0" length="4.5" maxSpeed="26.251917715144724" /><vType id="vType_car_12.019984876822324" accel="1.0" decel="5.0" sigma="0.0" length="4.5" maxSpeed="3.338884688006201" /><vType id="vType_car_10.267853751259134" accel="1.0" decel="5.0" sigma="0.0" length="4.5" maxSpeed="2.8521815975719815" /><vType id="vType_car_28.171744460902715" accel="1.0" decel="5.0" sigma="0.0" length="4.5" maxSpeed="7.825484572472976" /><vType id="vType_car_19.650141620660822" accel="1.0" decel="5.0" sigma="0.0" length="4.5" maxSpeed="5.458372672405784" /><vType id="vType_car_25.325248508041067" accel="1.0" decel="5.0" sigma="0.0" length="4.5" maxSpeed="7.03479125223363" /><vType id="vType_car_2.6124685474350446" accel="1.0" decel="5.0" sigma="0.0" length="4.5" maxSpeed="0.7256857076208457" /><vType id="vType_car_15.793131916601366" accel="1.0" decel="5.0" sigma="0.0" length="4.5" maxSpeed="4.386981087944823" /><vType id="vType_car_3.5694302943807132" accel="1.0" decel="5.0" sigma="0.0" length="4.5" maxSpeed="0.9915084151057536" /><vType id="vType_car_27.243094636780715" accel="1.0" decel="5.0" sigma="0.0" length="4.5" maxSpeed="7.567526287994642" /><vType id="vType_car_5.736472310426977" accel="1.0" decel="5.0" sigma="0.0" length="4.5" maxSpeed="1.5934645306741602" /><vType id="vType_car_42.89443651303916" accel="1.0" decel="5.0" sigma="0.0" length="4.5" maxSpeed="11.915121253621988" /><vType id="vType_car_5.031895022295145" accel="1.0" decel="5.0" sigma="0.0" length="4.5" maxSpeed="1.3977486173042069" /><vType id="vType_car_5.560441913574853" accel="1.0" decel="5.0" sigma="0.0" length="4.5" maxSpeed="1.544567198215237" /><route id="route_north_to_east" edges="north_to_center center_to_east" /><route id="route_north_to_south" edges="north_to_center center_to_south" /><route id="route_north_to_west" edges="north_to_center center_to_west" /><route id="route_east_to_west" edges="east_to_center center_to_west" /><route id="route_east_to_south" edges="east_to_center center_to_south" /><route id="route_east_to_north" edges="east_to_center center_to_north" /><route id="route_south_to_west" edges="south_to_center center_to_west" /><route id="route_south_to_north" edges="south_to_center center_to_north" /><route id="route_south_to_east" edges="south_to_center center_to_east" /><route id="route_west_to_south" edges="west_to_center center_to_south" /><route id="route_west_to_north" edges="west_to_center center_to_north" /><route id="route_west_to_east" edges="west_to_center center_to_east" /><vehicle id="veh424" type="vType_car_18.419785231298558" route="route_north_to_south" depart="0.04" /><vehicle id="veh434" type="vType_car_17.238163749136756" route="route_north_to_south" depart="0.04" /><vehicle id="veh436" type="vType_car_16.810814643878107" route="route_north_to_south" depart="0.04" /><vehicle id="veh441" type="vType_car_13.023749648648451" route="route_north_to_east" depart="0.04" /><vehicle id="veh459" type="vType_car_19.695059877737872" route="route_south_to_west" depart="0.04" /><vehicle id="veh428" type="vType_car_22.761448804543022" route="route_east_to_south" depart="0.04" /><vehicle id="veh437" type="vType_car_16.14799030081946" route="route_east_to_south" depart="0.04" /><vehicle id="veh462" type="vType_car_16.888716952330505" route="route_east_to_south" depart="0.25" /><vehicle id="veh463" type="vType_car_10.975383122927672" route="route_east_to_north" depart="0.33" /><vehicle id="veh465" type="vType_car_38.618933720193276" route="route_east_to_west" depart="2.42" /><vehicle id="veh468" type="vType_car_10.608517074513658" route="route_north_to_west" depart="5.28" /><vehicle id="veh470" type="vType_car_45.03623040592149" route="route_east_to_west" depart="5.53" /><vehicle id="veh474" type="vType_car_50.38601969615639" route="route_east_to_west" depart="8.14" /><vehicle id="veh475" type="vType_car_47.18185521532789" route="route_east_to_west" depart="9.08" /><vehicle id="veh479" type="vType_car_8.005139618460214" route="route_north_to_east" depart="12.91" /><vehicle id="veh509" type="vType_car_28.57842599610626" route="route_south_to_north" depart="31.98" /><vehicle id="veh513" type="vType_car_35.35749681307588" route="route_south_to_north" depart="32.95" /><vehicle id="veh514" type="vType_car_22.524957224118015" route="route_north_to_south" depart="33.24" /><vehicle id="veh518" type="vType_car_94.506903774521" route="route_south_to_north" depart="35.05" /><vehicle id="veh521" type="vType_car_10.267853751259134" route="route_south_to_east" depart="36.21" /><vehicle id="veh528" type="vType_car_25.325248508041067" route="route_north_to_south" depart="38.81" /><vehicle id="veh531" type="vType_car_15.793131916601366" route="route_north_to_west" depart="39.86" /><vehicle id="veh534" type="vType_car_27.243094636780715" route="route_north_to_south" depart="41.56" /><vehicle id="veh538" type="vType_car_42.89443651303916" route="route_south_to_north" depart="49.48" /></routes>