<?xml version='1.0' encoding='utf-8'?>
<routes><vType id="vType_car_10.655946815549461" accel="1.0" decel="5.0" sigma="0.0" length="4.5" maxSpeed="2.9599852265415167" /><vType id="vType_car_10.1697967604491" accel="1.0" decel="5.0" sigma="0.0" length="4.5" maxSpeed="2.824943544569195" /><vType id="vType_car_10.00529647602414" accel="1.0" decel="5.0" sigma="0.0" length="4.5" maxSpeed="2.779249021117817" /><vType id="vType_car_17.824076952946367" accel="1.0" decel="5.0" sigma="0.0" length="4.5" maxSpeed="4.951132486929546" /><vType id="vType_car_10.585907757676273" accel="1.0" decel="5.0" sigma="0.0" length="4.5" maxSpeed="2.9405299326878533" /><vType id="vType_car_9.44346681319764" accel="1.0" decel="5.0" sigma="0.0" length="4.5" maxSpeed="2.6231852258882333" /><vType id="vType_car_5.664652624959641" accel="1.0" decel="5.0" sigma="0.0" length="4.5" maxSpeed="1.5735146180443447" /><vType id="vType_car_3.8488529709865187" accel="1.0" decel="5.0" sigma="0.0" length="4.5" maxSpeed="1.069125825274033" /><vType id="vType_car_4.913266414218306" accel="1.0" decel="5.0" sigma="0.0" length="4.5" maxSpeed="1.3647962261717517" /><vType id="vType_car_3.1674901757585694" accel="1.0" decel="5.0" sigma="0.0" length="4.5" maxSpeed="0.8798583821551581" /><vType id="vType_car_7.664173615185981" accel="1.0" decel="5.0" sigma="0.0" length="4.5" maxSpeed="2.128937115329439" /><vType id="vType_car_12.10900497426872" accel="1.0" decel="5.0" sigma="0.0" length="4.5" maxSpeed="3.363612492852422" /><vType id="vType_car_41.85534635501796" accel="1.0" decel="5.0" sigma="0.0" length="4.5" maxSpeed="11.626485098616099" /><vType id="vType_bus_7.635800229626989" accel="1.0" decel="5.0" sigma="0.0" length="13" maxSpeed="2.1210556193408303" /><vType id="vType_car_23.06761348796826" accel="1.0" decel="5.0" sigma="0.0" length="4.5" maxSpeed="6.407670413324516" /><vType id="vType_car_8.226618039154427" accel="1.0" decel="5.0" sigma="0.0" length="4.5" maxSpeed="2.2851716775428965" /><vType id="vType_car_20.56183606365373" accel="1.0" decel="5.0" sigma="0.0" length="4.5" maxSpeed="5.711621128792703" /><vType id="vType_car_2.587796437674845" accel="1.0" decel="5.0" sigma="0.0" length="4.5" maxSpeed="0.718832343798568" /><vType id="vType_truck_12.575348462264879" accel="1.0" decel="5.0" sigma="0.0" length="8" maxSpeed="3.493152350629133" /><vType id="vType_truck_44.409060601679975" accel="1.0" decel="5.0" sigma="0.0" length="8" maxSpeed="12.335850167133326" /><vType id="vType_car_32.88687004198175" accel="1.0" decel="5.0" sigma="0.0" length="4.5" maxSpeed="9.135241678328264" /><vType id="vType_car_38.424423466840054" accel="1.0" decel="5.0" sigma="0.0" length="4.5" maxSpeed="10.673450963011126" /><vType id="vType_car_2.420765940334015" accel="1.0" decel="5.0" sigma="0.0" length="4.5" maxSpeed="0.6724349834261153" /><vType id="vType_car_3.646088865718452" accel="1.0" decel="5.0" sigma="0.0" length="4.5" maxSpeed="1.01280246269957" /><vType id="vType_car_36.146236149594614" accel="1.0" decel="5.0" sigma="0.0" length="4.5" maxSpeed="10.040621152665171" /><vType id="vType_car_14.529811706032136" accel="1.0" decel="5.0" sigma="0.0" length="4.5" maxSpeed="4.036058807231149" /><vType id="vType_car_15.934209224266153" accel="1.0" decel="5.0" sigma="0.0" length="4.5" maxSpeed="4.42616922896282" /><vType id="vType_car_38.44185068823841" accel="1.0" decel="5.0" sigma="0.0" length="4.5" maxSpeed="10.678291857844004" /><vType id="vType_car_6.326297523138596" accel="1.0" decel="5.0" sigma="0.0" length="4.5" maxSpeed="1.7573048675384988" /><vType id="vType_car_47.95169594171701" accel="1.0" decel="5.0" sigma="0.0" length="4.5" maxSpeed="13.319915539365837" /><vType id="vType_car_4.635636418439065" accel="1.0" decel="5.0" sigma="0.0" length="4.5" maxSpeed="1.2876767828997402" /><vType id="vType_truck_4.483841381400324" accel="1.0" decel="5.0" sigma="0.0" length="8" maxSpeed="1.2455114948334232" /><vType id="vType_car_58.40541477752858" accel="1.0" decel="5.0" sigma="0.0" length="4.5" maxSpeed="16.22372632709127" /><vType id="vType_car_6.4281814687769705" accel="1.0" decel="5.0" sigma="0.0" length="4.5" maxSpeed="1.7856059635491583" /><vType id="vType_car_56.70226366614465" accel="1.0" decel="5.0" sigma="0.0" length="4.5" maxSpeed="15.750628796151291" /><vType id="vType_car_13.661096909746826" accel="1.0" decel="5.0" sigma="0.0" length="4.5" maxSpeed="3.7947491415963404" /><vType id="vType_car_39.72763006795863" accel="1.0" decel="5.0" sigma="0.0" length="4.5" maxSpeed="11.035452796655175" /><vType id="vType_car_21.445466662879934" accel="1.0" decel="5.0" sigma="0.0" length="4.5" maxSpeed="5.957074073022204" /><vType id="vType_car_26.09995452141298" accel="1.0" decel="5.0" sigma="0.0" length="4.5" maxSpeed="7.249987367059161" /><vType id="vType_car_1.9741785037178048" accel="1.0" decel="5.0" sigma="0.0" length="4.5" maxSpeed="0.5483829176993902" /><vType id="vType_car_6.327062614607106" accel="1.0" decel="5.0" sigma="0.0" length="4.5" maxSpeed="1.7575173929464183" /><vType id="vType_car_8.795031461220011" accel="1.0" decel="5.0" sigma="0.0" length="4.5" maxSpeed="2.4430642947833365" /><vType id="vType_car_2.6479882492837876" accel="1.0" decel="5.0" sigma="0.0" length="4.5" maxSpeed="0.7355522914677187" /><vType id="vType_car_1.4524406390319653" accel="1.0" decel="5.0" sigma="0.0" length="4.5" maxSpeed="0.4034557330644348" /><vType id="vType_car_8.153745667307215" accel="1.0" decel="5.0" sigma="0.0" length="4.5" maxSpeed="2.2649293520297817" /><vType id="vType_car_6.305514861110286" accel="1.0" decel="5.0" sigma="0.0" length="4.5" maxSpeed="1.7515319058639682" /><vType id="vType_car_15.998470442416385" accel="1.0" decel="5.0" sigma="0.0" length="4.5" maxSpeed="4.444019567337885" /><vType id="vType_car_2.509266365318662" accel="1.0" decel="5.0" sigma="0.0" length="4.5" maxSpeed="0.6970184348107394" /><vType id="vType_car_28.20853467157428" accel="1.0" decel="5.0" sigma="0.0" length="4.5" maxSpeed="7.8357040754373" /><vType id="vType_car_33.454094696431554" accel="1.0" decel="5.0" sigma="0.0" length="4.5" maxSpeed="9.292804082342098" /><vType id="vType_car_18.96216349316119" accel="1.0" decel="5.0" sigma="0.0" length="4.5" maxSpeed="5.267267636989219" /><vType id="vType_car_11.265376106642883" accel="1.0" decel="5.0" sigma="0.0" length="4.5" maxSpeed="3.129271140734134" /><vType id="vType_car_1.8443930973973446" accel="1.0" decel="5.0" sigma="0.0" length="4.5" maxSpeed="0.5123314159437068" /><vType id="vType_car_30.542363126892106" accel="1.0" decel="5.0" sigma="0.0" length="4.5" maxSpeed="8.48398975747003" /><vType id="vType_car_15.04971144347087" accel="1.0" decel="5.0" sigma="0.0" length="4.5" maxSpeed="4.18047540096413" /><vType id="vType_car_12.77972296266551" accel="1.0" decel="5.0" sigma="0.0" length="4.5" maxSpeed="3.5499230451848636" /><vType id="vType_car_1.2251979371968906" accel="1.0" decel="5.0" sigma="0.0" length="4.5" maxSpeed="0.3403327603324696" /><vType id="vType_car_2.4784032246276815" accel="1.0" decel="5.0" sigma="0.0" length="4.5" maxSpeed="0.688445340174356" /><vType id="vType_car_9.60663638933308" accel="1.0" decel="5.0" sigma="0.0" length="4.5" maxSpeed="2.6685101081480775" /><vType id="vType_car_2.7665896460960164" accel="1.0" decel="5.0" sigma="0.0" length="4.5" maxSpeed="0.7684971239155601" /><vType id="vType_car_3.1124133518580184" accel="1.0" decel="5.0" sigma="0.0" length="4.5" maxSpeed="0.8645592644050051" /><vType id="vType_car_2.960483359342984" accel="1.0" decel="5.0" sigma="0.0" length="4.5" maxSpeed="0.8223564887063843" /><vType id="vType_car_3.311807931864541" accel="1.0" decel="5.0" sigma="0.0" length="4.5" maxSpeed="0.9199466477401502" /><vType id="vType_car_1.5379518859109529" accel="1.0" decel="5.0" sigma="0.0" length="4.5" maxSpeed="0.4272088571974869" /><vType id="vType_car_7.91357632760847" accel="1.0" decel="5.0" sigma="0.0" length="4.5" maxSpeed="2.1982156465579084" /><vType id="vType_car_34.56544636200298" accel="1.0" decel="5.0" sigma="0.0" length="4.5" maxSpeed="9.60151287833416" /><vType id="vType_car_2.766589646096017" accel="1.0" decel="5.0" sigma="0.0" length="4.5" maxSpeed="0.7684971239155602" /><vType id="vType_car_13.04099437888963" accel="1.0" decel="5.0" sigma="0.0" length="4.5" maxSpeed="3.6224984385804526" /><vType id="vType_car_2.6184338487077126" accel="1.0" decel="5.0" sigma="0.0" length="4.5" maxSpeed="0.7273427357521424" /><vType id="vType_car_3.5202483429766143" accel="1.0" decel="5.0" sigma="0.0" length="4.5" maxSpeed="0.9778467619379484" /><vType id="vType_car_2.6901058020959385" accel="1.0" decel="5.0" sigma="0.0" length="4.5" maxSpeed="0.7472516116933162" /><vType id="vType_car_5.216718167684472" accel="1.0" decel="5.0" sigma="0.0" length="4.5" maxSpeed="1.4490883799123533" /><vType id="vType_car_14.4236241409042" accel="1.0" decel="5.0" sigma="0.0" length="4.5" maxSpeed="4.006562261362278" /><vType id="vType_car_2.0793114672937403" accel="1.0" decel="5.0" sigma="0.0" length="4.5" maxSpeed="0.5775865186927056" /><vType id="vType_car_3.305095562408696" accel="1.0" decel="5.0" sigma="0.0" length="4.5" maxSpeed="0.9180821006690822" /><vType id="vType_car_3.628445250992938" accel="1.0" decel="5.0" sigma="0.0" length="4.5" maxSpeed="1.0079014586091495" /><vType id="vType_car_2.6486729246141967" accel="1.0" decel="5.0" sigma="0.0" length="4.5" maxSpeed="0.7357424790594991" /><vType id="vType_car_3.2119412051343312" accel="1.0" decel="5.0" sigma="0.0" length="4.5" maxSpeed="0.892205890315092" /><vType id="vType_car_2.248223364782596" accel="1.0" decel="5.0" sigma="0.0" length="4.5" maxSpeed="0.6245064902173878" /><vType id="vType_car_6.168618744743294" accel="1.0" decel="5.0" sigma="0.0" length="4.5" maxSpeed="1.7135052068731371" /><vType id="vType_car_12.072967576285933" accel="1.0" decel="5.0" sigma="0.0" length="4.5" maxSpeed="3.35360210452387" /><vType id="vType_car_4.46426998466925" accel="1.0" decel="5.0" sigma="0.0" length="4.5" maxSpeed="1.2400749957414583" /><vType id="vType_car_2.444593701250287" accel="1.0" decel="5.0" sigma="0.0" length="4.5" maxSpeed="0.6790538059028575" /><vType id="vType_truck_2.766589646096017" accel="1.0" decel="5.0" sigma="0.0" length="8" maxSpeed="0.7684971239155602" /><vType id="vType_car_13.11459812469945" accel="1.0" decel="5.0" sigma="0.0" length="4.5" maxSpeed="3.642943923527625" /><vType id="vType_car_4.915266228408167" accel="1.0" decel="5.0" sigma="0.0" length="4.5" maxSpeed="1.3653517301133797" /><vType id="vType_car_3.5490993659020105" accel="1.0" decel="5.0" sigma="0.0" length="4.5" maxSpeed="0.9858609349727807" /><vType id="vType_car_28.55209900120501" accel="1.0" decel="5.0" sigma="0.0" length="4.5" maxSpeed="7.931138611445836" /><vType id="vType_car_25.258721445672016" accel="1.0" decel="5.0" sigma="0.0" length="4.5" maxSpeed="7.016311512686671" /><vType id="vType_car_38.21037492891684" accel="1.0" decel="5.0" sigma="0.0" length="4.5" maxSpeed="10.613993035810234" /><vType id="vType_car_12.310605151103939" accel="1.0" decel="5.0" sigma="0.0" length="4.5" maxSpeed="3.4196125419733163" /><vType id="vType_car_31.819727805353764" accel="1.0" decel="5.0" sigma="0.0" length="4.5" maxSpeed="8.838813279264935" /><vType id="vType_car_21.092337256622073" accel="1.0" decel="5.0" sigma="0.0" length="4.5" maxSpeed="5.858982571283909" /><vType id="vType_car_2.7900545587303878" accel="1.0" decel="5.0" sigma="0.0" length="4.5" maxSpeed="0.7750151552028854" /><vType id="vType_car_82.47131416831195" accel="1.0" decel="5.0" sigma="0.0" length="4.5" maxSpeed="22.90869838008665" /><vType id="vType_car_35.53628926760346" accel="1.0" decel="5.0" sigma="0.0" length="4.5" maxSpeed="9.871191463223182" /><vType id="vType_car_6.785149857053323" accel="1.0" decel="5.0" sigma="0.0" length="4.5" maxSpeed="1.8847638491814787" /><vType id="vType_car_39.62863016729925" accel="1.0" decel="5.0" sigma="0.0" length="4.5" maxSpeed="11.007952824249791" /><vType id="vType_car_45.456560897237296" accel="1.0" decel="5.0" sigma="0.0" length="4.5" maxSpeed="12.626822471454805" /><vType id="vType_car_2.9876207189755237" accel="1.0" decel="5.0" sigma="0.0" length="4.5" maxSpeed="0.8298946441598677" /><vType id="vType_car_41.09678033296085" accel="1.0" decel="5.0" sigma="0.0" length="4.5" maxSpeed="11.415772314711345" /><vType id="vType_car_17.893923494311746" accel="1.0" decel="5.0" sigma="0.0" length="4.5" maxSpeed="4.970534303975485" /><vType id="vType_car_35.680223194356245" accel="1.0" decel="5.0" sigma="0.0" length="4.5" maxSpeed="9.911173109543402" /><vType id="vType_car_16.673138008290355" accel="1.0" decel="5.0" sigma="0.0" length="4.5" maxSpeed="4.6314272245250985" /><vType id="vType_car_20.721961983293898" accel="1.0" decel="5.0" sigma="0.0" length="4.5" maxSpeed="5.756100550914971" /><vType id="vType_car_29.409251342002612" accel="1.0" decel="5.0" sigma="0.0" length="4.5" maxSpeed="8.169236483889614" /><vType id="vType_car_27.281960102806178" accel="1.0" decel="5.0" sigma="0.0" length="4.5" maxSpeed="7.578322250779493" /><vType id="vType_car_18.659302084204995" accel="1.0" decel="5.0" sigma="0.0" length="4.5" maxSpeed="5.183139467834721" /><vType id="vType_car_9.830361787544431" accel="1.0" decel="5.0" sigma="0.0" length="4.5" maxSpeed="2.7306560520956755" /><vType id="vType_car_37.96844613567411" accel="1.0" decel="5.0" sigma="0.0" length="4.5" maxSpeed="10.546790593242807" /><vType id="vType_car_39.66876376982307" accel="1.0" decel="5.0" sigma="0.0" length="4.5" maxSpeed="11.019101047173075" /><vType id="vType_car_3.483594455266932" accel="1.0" decel="5.0" sigma="0.0" length="4.5" maxSpeed="0.9676651264630366" /><vType id="vType_car_19.065159845700997" accel="1.0" decel="5.0" sigma="0.0" length="4.5" maxSpeed="5.295877734916943" /><vType id="vType_car_5.479287846578355" accel="1.0" decel="5.0" sigma="0.0" length="4.5" maxSpeed="1.5220244018273208" /><vType id="vType_car_3.884962875851603" accel="1.0" decel="5.0" sigma="0.0" length="4.5" maxSpeed="1.079156354403223" /><vType id="vType_car_2.6869617690241956" accel="1.0" decel="5.0" sigma="0.0" length="4.5" maxSpeed="0.7463782691733877" /><vType id="vType_car_13.08817137472496" accel="1.0" decel="5.0" sigma="0.0" length="4.5" maxSpeed="3.635603159645822" /><vType id="vType_car_2.7432080977236315" accel="1.0" decel="5.0" sigma="0.0" length="4.5" maxSpeed="0.7620022493676754" /><vType id="vType_car_53.8734728094426" accel="1.0" decel="5.0" sigma="0.0" length="4.5" maxSpeed="14.9648535581785" /><vType id="vType_car_3.17877568279257" accel="1.0" decel="5.0" sigma="0.0" length="4.5" maxSpeed="0.8829932452201583" /><vType id="vType_car_22.900901623609034" accel="1.0" decel="5.0" sigma="0.0" length="4.5" maxSpeed="6.36136156211362" /><vType id="vType_car_5.414748450134595" accel="1.0" decel="5.0" sigma="0.0" length="4.5" maxSpeed="1.504096791704054" /><vType id="vType_car_6.21995768787728" accel="1.0" decel="5.0" sigma="0.0" length="4.5" maxSpeed="1.7277660244103556" /><vType id="vType_car_3.65725363418714" accel="1.0" decel="5.0" sigma="0.0" length="4.5" maxSpeed="1.0159037872742056" /><vType id="vType_car_26.708716769014742" accel="1.0" decel="5.0" sigma="0.0" length="4.5" maxSpeed="7.419087991392984" /><vType id="vType_truck_14.632081600359392" accel="1.0" decel="5.0" sigma="0.0" length="8" maxSpeed="4.064467111210942" /><vType id="vType_car_3.7945107449581617" accel="1.0" decel="5.0" sigma="0.0" length="4.5" maxSpeed="1.0540307624883782" /><vType id="vType_truck_14.760996470332255" accel="1.0" decel="5.0" sigma="0.0" length="8" maxSpeed="4.100276797314515" /><vType id="vType_car_4.007482947075591" accel="1.0" decel="5.0" sigma="0.0" length="4.5" maxSpeed="1.1131897075209973" /><vType id="vType_car_3.374588911448285" accel="1.0" decel="5.0" sigma="0.0" length="4.5" maxSpeed="0.9373858087356347" /><vType id="vType_car_7.265858706625973" accel="1.0" decel="5.0" sigma="0.0" length="4.5" maxSpeed="2.0182940851738813" /><vType id="vType_car_2.654192098096851" accel="1.0" decel="5.0" sigma="0.0" length="4.5" maxSpeed="0.7372755828046809" /><vType id="vType_car_29.065834412948526" accel="1.0" decel="5.0" sigma="0.0" length="4.5" maxSpeed="8.073842892485702" /><vType id="vType_car_34.92680163525178" accel="1.0" decel="5.0" sigma="0.0" length="4.5" maxSpeed="9.701889343125494" /><vType id="vType_car_18.45543495990173" accel="1.0" decel="5.0" sigma="0.0" length="4.5" maxSpeed="5.126509711083814" /><vType id="vType_car_12.596822163664376" accel="1.0" decel="5.0" sigma="0.0" length="4.5" maxSpeed="3.499117267684549" /><vType id="vType_car_13.118754553027864" accel="1.0" decel="5.0" sigma="0.0" length="4.5" maxSpeed="3.6440984869521844" /><vType id="vType_car_6.358107354768886" accel="1.0" decel="5.0" sigma="0.0" length="4.5" maxSpeed="1.766140931880246" /><vType id="vType_truck_10.704080659486815" accel="1.0" decel="5.0" sigma="0.0" length="8" maxSpeed="2.973355738746337" /><vType id="vType_bus_35.57785364980332" accel="1.0" decel="5.0" sigma="0.0" length="13" maxSpeed="9.882737124945367" /><vType id="vType_car_46.89738774907587" accel="1.0" decel="5.0" sigma="0.0" length="4.5" maxSpeed="13.027052152521074" /><vType id="vType_car_3.1942265257741425" accel="1.0" decel="5.0" sigma="0.0" length="4.5" maxSpeed="0.8872851460483728" /><vType id="vType_car_25.288277357779187" accel="1.0" decel="5.0" sigma="0.0" length="4.5" maxSpeed="7.024521488271996" /><vType id="vType_car_7.046803209221634" accel="1.0" decel="5.0" sigma="0.0" length="4.5" maxSpeed="1.9574453358948984" /><vType id="vType_car_13.742384899173738" accel="1.0" decel="5.0" sigma="0.0" length="4.5" maxSpeed="3.8173291386593715" /><vType id="vType_car_3.9635426266706353" accel="1.0" decel="5.0" sigma="0.0" length="4.5" maxSpeed="1.1009840629640653" /><vType id="vType_truck_11.406941333594059" accel="1.0" decel="5.0" sigma="0.0" length="8" maxSpeed="3.1685948148872383" /><vType id="vType_car_3.0866277801486572" accel="1.0" decel="5.0" sigma="0.0" length="4.5" maxSpeed="0.8573966055968492" /><vType id="vType_car_13.512720345874529" accel="1.0" decel="5.0" sigma="0.0" length="4.5" maxSpeed="3.7535334294095914" /><vType id="vType_truck_16.620339929856637" accel="1.0" decel="5.0" sigma="0.0" length="8" maxSpeed="4.616761091626843" /><vType id="vType_car_39.28066294574795" accel="1.0" decel="5.0" sigma="0.0" length="4.5" maxSpeed="10.911295262707764" /><vType id="vType_car_42.54332971343989" accel="1.0" decel="5.0" sigma="0.0" length="4.5" maxSpeed="11.817591587066635" /><vType id="vType_car_7.393627348975849" accel="1.0" decel="5.0" sigma="0.0" length="4.5" maxSpeed="2.0537853747155133" /><vType id="vType_car_4.944787774182478" accel="1.0" decel="5.0" sigma="0.0" length="4.5" maxSpeed="1.3735521594951328" /><vType id="vType_car_19.25131632938335" accel="1.0" decel="5.0" sigma="0.0" length="4.5" maxSpeed="5.347587869273153" /><vType id="vType_car_42.525744574172826" accel="1.0" decel="5.0" sigma="0.0" length="4.5" maxSpeed="11.812706826159118" /><vType id="vType_car_2.254073741758014" accel="1.0" decel="5.0" sigma="0.0" length="4.5" maxSpeed="0.6261315949327817" /><vType id="vType_car_4.378317562792913" accel="1.0" decel="5.0" sigma="0.0" length="4.5" maxSpeed="1.2161993229980312" /><vType id="vType_car_2.451068219144081" accel="1.0" decel="5.0" sigma="0.0" length="4.5" maxSpeed="0.680852283095578" /><vType id="vType_car_44.93510432071296" accel="1.0" decel="5.0" sigma="0.0" length="4.5" maxSpeed="12.481973422420266" /><vType id="vType_car_38.96332584655704" accel="1.0" decel="5.0" sigma="0.0" length="4.5" maxSpeed="10.823146068488066" /><vType id="vType_car_46.10697174575448" accel="1.0" decel="5.0" sigma="0.0" length="4.5" maxSpeed="12.807492151598465" /><vType id="vType_car_17.355381500719588" accel="1.0" decel="5.0" sigma="0.0" length="4.5" maxSpeed="4.820939305755441" /><vType id="vType_car_2.351723828726804" accel="1.0" decel="5.0" sigma="0.0" length="4.5" maxSpeed="0.6532566190907788" /><vType id="vType_car_4.178937958748807" accel="1.0" decel="5.0" sigma="0.0" length="4.5" maxSpeed="1.1608160996524464" /><vType id="vType_car_47.00001654207123" accel="1.0" decel="5.0" sigma="0.0" length="4.5" maxSpeed="13.05556015057534" /><vType id="vType_car_16.600957121023427" accel="1.0" decel="5.0" sigma="0.0" length="4.5" maxSpeed="4.611376978062063" /><vType id="vType_car_6.00020947702333" accel="1.0" decel="5.0" sigma="0.0" length="4.5" maxSpeed="1.6667248547287028" /><vType id="vType_car_2.729171461558741" accel="1.0" decel="5.0" sigma="0.0" length="4.5" maxSpeed="0.7581031837663169" /><vType id="vType_car_50.39667455706726" accel="1.0" decel="5.0" sigma="0.0" length="4.5" maxSpeed="13.999076265852015" /><vType id="vType_car_25.138003618465994" accel="1.0" decel="5.0" sigma="0.0" length="4.5" maxSpeed="6.9827787829072205" /><vType id="vType_car_8.192768626908473" accel="1.0" decel="5.0" sigma="0.0" length="4.5" maxSpeed="2.2757690630301313" /><vType id="vType_car_6.741732118753889" accel="1.0" decel="5.0" sigma="0.0" length="4.5" maxSpeed="1.8727033663205248" /><vType id="vType_car_3.2757117715211637" accel="1.0" decel="5.0" sigma="0.0" length="4.5" maxSpeed="0.9099199365336565" /><vType id="vType_car_23.77998274304965" accel="1.0" decel="5.0" sigma="0.0" length="4.5" maxSpeed="6.605550761958236" /><vType id="vType_car_6.929124788074838" accel="1.0" decel="5.0" sigma="0.0" length="4.5" maxSpeed="1.924756885576344" /><vType id="vType_car_34.818396973863464" accel="1.0" decel="5.0" sigma="0.0" length="4.5" maxSpeed="9.671776937184296" /><vType id="vType_car_7.540308425904998" accel="1.0" decel="5.0" sigma="0.0" length="4.5" maxSpeed="2.094530118306944" /><vType id="vType_car_37.66007578944986" accel="1.0" decel="5.0" sigma="0.0" length="4.5" maxSpeed="10.461132163736073" /><vType id="vType_car_57.77567822268572" accel="1.0" decel="5.0" sigma="0.0" length="4.5" maxSpeed="16.048799506301588" /><vType id="vType_car_2.674369991226149" accel="1.0" decel="5.0" sigma="0.0" length="4.5" maxSpeed="0.7428805531183748" /><vType id="vType_car_3.201892747562308" accel="1.0" decel="5.0" sigma="0.0" length="4.5" maxSpeed="0.8894146521006411" /><vType id="vType_car_2.6452685685401742" accel="1.0" decel="5.0" sigma="0.0" length="4.5" maxSpeed="0.7347968245944928" /><vType id="vType_car_5.876816962625092" accel="1.0" decel="5.0" sigma="0.0" length="4.5" maxSpeed="1.6324491562847478" /><vType id="vType_car_11.085587622531113" accel="1.0" decel="5.0" sigma="0.0" length="4.5" maxSpeed="3.079329895147531" /><vType id="vType_car_7.094113594740732" accel="1.0" decel="5.0" sigma="0.0" length="4.5" maxSpeed="1.9705871096502035" /><vType id="vType_car_2.5640286321949013" accel="1.0" decel="5.0" sigma="0.0" length="4.5" maxSpeed="0.7122301756096948" /><vType id="vType_car_13.8109740700248" accel="1.0" decel="5.0" sigma="0.0" length="4.5" maxSpeed="3.836381686118" /><vType id="vType_car_8.746823040605914" accel="1.0" decel="5.0" sigma="0.0" length="4.5" maxSpeed="2.429673066834976" /><vType id="vType_car_5.698180776466745" accel="1.0" decel="5.0" sigma="0.0" length="4.5" maxSpeed="1.5828279934629848" /><vType id="vType_car_4.312590959922394" accel="1.0" decel="5.0" sigma="0.0" length="4.5" maxSpeed="1.1979419333117762" /><vType id="vType_car_10.456337265816208" accel="1.0" decel="5.0" sigma="0.0" length="4.5" maxSpeed="2.904538129393391" /><vType id="vType_car_9.679015104209137" accel="1.0" decel="5.0" sigma="0.0" length="4.5" maxSpeed="2.6886153067247602" /><vType id="vType_car_18.558847543553338" accel="1.0" decel="5.0" sigma="0.0" length="4.5" maxSpeed="5.155235428764816" /><vType id="vType_car_82.76642277212862" accel="1.0" decel="5.0" sigma="0.0" length="4.5" maxSpeed="22.99067299225795" /><vType id="vType_car_2.5936777932150155" accel="1.0" decel="5.0" sigma="0.0" length="4.5" maxSpeed="0.7204660536708376" /><vType id="vType_car_18.841829567898444" accel="1.0" decel="5.0" sigma="0.0" length="4.5" maxSpeed="5.233841546638456" /><vType id="vType_car_13.832948230480085" accel="1.0" decel="5.0" sigma="0.0" length="4.5" maxSpeed="3.8424856195778014" /><route id="route_north_to_east" edges="north_to_center center_to_east" /><route id="route_north_to_south" edges="north_to_center center_to_south" /><route id="route_north_to_west" edges="north_to_center center_to_west" /><route id="route_east_to_west" edges="east_to_center center_to_west" /><route id="route_east_to_south" edges="east_to_center center_to_south" /><route id="route_east_to_north" edges="east_to_center center_to_north" /><route id="route_south_to_west" edges="south_to_center center_to_west" /><route id="route_south_to_north" edges="south_to_center center_to_north" /><route id="route_south_to_east" edges="south_to_center center_to_east" /><route id="route_west_to_south" edges="west_to_center center_to_south" /><route id="route_west_to_north" edges="west_to_center center_to_north" /><route id="route_west_to_east" edges="west_to_center center_to_east" /><vehicle id="veh379" type="vType_car_10.1697967604491" route="route_north_to_east" depart="0.05" /><vehicle id="veh389" type="vType_car_10.00529647602414" route="route_south_to_north" depart="0.05" /><vehicle id="veh399" type="vType_car_17.824076952946367" route="route_south_to_west" depart="0.05" /><vehicle id="veh391" type="vType_car_10.585907757676273" route="route_north_to_east" depart="0.05" /><vehicle id="veh444" type="vType_car_41.85534635501796" route="route_west_to_south" depart="0.05" /><vehicle id="veh445" type="vType_bus_7.635800229626989" route="route_north_to_east" depart="0.05" /><vehicle id="veh296" type="vType_car_23.06761348796826" route="route_east_to_west" depart="0.05" /><vehicle id="veh403" type="vType_car_20.56183606365373" route="route_east_to_west" depart="0.05" /><vehicle id="veh454" type="vType_truck_44.409060601679975" route="route_west_to_east" depart="0.14" /><vehicle id="veh452" type="vType_car_32.88687004198175" route="route_west_to_east" depart="0.32" /><vehicle id="veh458" type="vType_car_38.424423466840054" route="route_west_to_east" depart="3.28" /><vehicle id="veh462" type="vType_car_36.146236149594614" route="route_west_to_east" depart="5.60" /><vehicle id="veh465" type="vType_car_14.529811706032136" route="route_north_to_south" depart="6.10" /><vehicle id="veh471" type="vType_car_38.44185068823841" route="route_west_to_east" depart="7.15" /><vehicle id="veh474" type="vType_car_47.95169594171701" route="route_west_to_east" depart="7.42" /><vehicle id="veh493" type="vType_car_13.661096909746826" route="route_west_to_east" depart="13.03" /><vehicle id="veh511" type="vType_car_15.998470442416385" route="route_west_to_east" depart="16.03" /><vehicle id="veh517" type="vType_car_18.96216349316119" route="route_east_to_south" depart="18.22" /><vehicle id="veh520" type="vType_car_30.542363126892106" route="route_east_to_west" depart="18.35" /><vehicle id="veh521" type="vType_car_15.04971144347087" route="route_east_to_south" depart="18.76" /><vehicle id="veh522" type="vType_car_12.77972296266551" route="route_south_to_east" depart="18.85" /><vehicle id="veh542" type="vType_car_7.91357632760847" route="route_south_to_east" depart="31.02" /><vehicle id="veh544" type="vType_car_34.56544636200298" route="route_south_to_west" depart="31.20" /><vehicle id="veh549" type="vType_car_13.04099437888963" route="route_east_to_west" depart="33.93" /><vehicle id="veh556" type="vType_car_14.4236241409042" route="route_north_to_east" depart="38.26" /><vehicle id="veh581" type="vType_car_31.819727805353764" route="route_south_to_north" depart="51.15" /><vehicle id="veh582" type="vType_car_21.092337256622073" route="route_north_to_west" depart="51.15" /><vehicle id="veh599" type="vType_car_20.721961983293898" route="route_north_to_west" depart="57.70" /><vehicle id="veh628" type="vType_car_22.900901623609034" route="route_west_to_east" depart="67.54" /><vehicle id="veh613" type="vType_car_26.708716769014742" route="route_west_to_east" depart="74.19" /><vehicle id="veh640" type="vType_car_7.265858706625973" route="route_east_to_north" depart="79.20" /><vehicle id="veh646" type="vType_car_18.45543495990173" route="route_west_to_north" depart="81.11" /><vehicle id="veh653" type="vType_bus_35.57785364980332" route="route_west_to_east" depart="82.89" /><vehicle id="veh663" type="vType_truck_16.620339929856637" route="route_west_to_north" depart="83.07" /><vehicle id="veh664" type="vType_car_39.28066294574795" route="route_west_to_east" depart="83.71" /><vehicle id="veh665" type="vType_car_42.54332971343989" route="route_west_to_south" depart="83.71" /><vehicle id="veh677" type="vType_car_44.93510432071296" route="route_west_to_south" depart="85.67" /><vehicle id="veh684" type="vType_car_47.00001654207123" route="route_west_to_east" depart="88.45" /><vehicle id="veh696" type="vType_car_23.77998274304965" route="route_east_to_west" depart="100.38" /><vehicle id="veh697" type="vType_car_6.929124788074838" route="route_east_to_north" depart="100.61" /><vehicle id="veh702" type="vType_car_37.66007578944986" route="route_west_to_east" depart="101.97" /><vehicle id="veh703" type="vType_car_57.77567822268572" route="route_west_to_east" depart="102.06" /></routes>