<?xml version='1.0' encoding='utf-8'?>
<routes><vType id="vType_car_14.253354461913009" accel="1.0" decel="5.0" sigma="0.0" length="4.5" maxSpeed="3.959265128309169" /><vType id="vType_car_18.247799859871346" accel="1.0" decel="5.0" sigma="0.0" length="4.5" maxSpeed="5.068833294408707" /><vType id="vType_car_20.91666088122017" accel="1.0" decel="5.0" sigma="0.0" length="4.5" maxSpeed="5.810183578116714" /><vType id="vType_car_16.018547726744302" accel="1.0" decel="5.0" sigma="0.0" length="4.5" maxSpeed="4.449596590762306" /><vType id="vType_car_20.39448345963228" accel="1.0" decel="5.0" sigma="0.0" length="4.5" maxSpeed="5.6651342943423" /><vType id="vType_car_2.7870531988269813" accel="1.0" decel="5.0" sigma="0.0" length="4.5" maxSpeed="0.7741814441186059" /><vType id="vType_car_2.766589646096017" accel="1.0" decel="5.0" sigma="0.0" length="4.5" maxSpeed="0.7684971239155602" /><vType id="vType_car_11.348345350012814" accel="1.0" decel="5.0" sigma="0.0" length="4.5" maxSpeed="3.152318152781337" /><vType id="vType_car_3.037528174533332" accel="1.0" decel="5.0" sigma="0.0" length="4.5" maxSpeed="0.8437578262592588" /><vType id="vType_car_2.9271371308148115" accel="1.0" decel="5.0" sigma="0.0" length="4.5" maxSpeed="0.8130936474485587" /><vType id="vType_car_6.9384261807840115" accel="1.0" decel="5.0" sigma="0.0" length="4.5" maxSpeed="1.9273406057733364" /><vType id="vType_car_38.9012177949901" accel="1.0" decel="5.0" sigma="0.0" length="4.5" maxSpeed="10.805893831941695" /><vType id="vType_truck_44.209956061815426" accel="1.0" decel="5.0" sigma="0.0" length="8" maxSpeed="12.280543350504285" /><vType id="vType_car_8.00396853695717" accel="1.0" decel="5.0" sigma="0.0" length="4.5" maxSpeed="2.223324593599214" /><vType id="vType_car_3.866588597919963" accel="1.0" decel="5.0" sigma="0.0" length="4.5" maxSpeed="1.0740523883111008" /><vType id="vType_car_28.156681091948954" accel="1.0" decel="5.0" sigma="0.0" length="4.5" maxSpeed="7.821300303319154" /><vType id="vType_car_52.315202549971424" accel="1.0" decel="5.0" sigma="0.0" length="4.5" maxSpeed="14.532000708325395" /><vType id="vType_car_11.491054948806674" accel="1.0" decel="5.0" sigma="0.0" length="4.5" maxSpeed="3.191959708001854" /><vType id="vType_car_8.192354619483108" accel="1.0" decel="5.0" sigma="0.0" length="4.5" maxSpeed="2.27565406096753" /><vType id="vType_car_8.760101981678067" accel="1.0" decel="5.0" sigma="0.0" length="4.5" maxSpeed="2.433361661577241" /><vType id="vType_car_19.298666017987152" accel="1.0" decel="5.0" sigma="0.0" length="4.5" maxSpeed="5.360740560551987" /><vType id="vType_car_30.140890628768982" accel="1.0" decel="5.0" sigma="0.0" length="4.5" maxSpeed="8.372469619102494" /><vType id="vType_car_11.406941333594059" accel="1.0" decel="5.0" sigma="0.0" length="4.5" maxSpeed="3.1685948148872383" /><vType id="vType_car_24.789742216214243" accel="1.0" decel="5.0" sigma="0.0" length="4.5" maxSpeed="6.886039504503956" /><vType id="vType_car_6.451133120443277" accel="1.0" decel="5.0" sigma="0.0" length="4.5" maxSpeed="1.7919814223453547" /><vType id="vType_car_7.467503573610179" accel="1.0" decel="5.0" sigma="0.0" length="4.5" maxSpeed="2.07430654822505" /><vType id="vType_car_11.390274348094959" accel="1.0" decel="5.0" sigma="0.0" length="4.5" maxSpeed="3.163965096693044" /><vType id="vType_car_56.322708944376686" accel="1.0" decel="5.0" sigma="0.0" length="4.5" maxSpeed="15.645196928993524" /><vType id="vType_car_10.588639395341577" accel="1.0" decel="5.0" sigma="0.0" length="4.5" maxSpeed="2.941288720928216" /><vType id="vType_car_21.509709101468054" accel="1.0" decel="5.0" sigma="0.0" length="4.5" maxSpeed="5.974919194852237" /><vType id="vType_truck_9.97508082716696" accel="1.0" decel="5.0" sigma="0.0" length="8" maxSpeed="2.7708557853241556" /><vType id="vType_car_15.173122853799608" accel="1.0" decel="5.0" sigma="0.0" length="4.5" maxSpeed="4.214756348277668" /><vType id="vType_car_9.270192119163998" accel="1.0" decel="5.0" sigma="0.0" length="4.5" maxSpeed="2.5750533664344437" /><vType id="vType_car_40.097407781033255" accel="1.0" decel="5.0" sigma="0.0" length="4.5" maxSpeed="11.138168828064792" /><vType id="vType_car_18.059295303075857" accel="1.0" decel="5.0" sigma="0.0" length="4.5" maxSpeed="5.0164709175210715" /><vType id="vType_car_7.35878220702455" accel="1.0" decel="5.0" sigma="0.0" length="4.5" maxSpeed="2.0441061686179305" /><vType id="vType_car_58.88341554651767" accel="1.0" decel="5.0" sigma="0.0" length="4.5" maxSpeed="16.35650431847713" /><vType id="vType_car_60.31251757313853" accel="1.0" decel="5.0" sigma="0.0" length="4.5" maxSpeed="16.75347710364959" /><vType id="vType_car_28.14432879313913" accel="1.0" decel="5.0" sigma="0.0" length="4.5" maxSpeed="7.817869109205314" /><vType id="vType_car_2.6399106300773587" accel="1.0" decel="5.0" sigma="0.0" length="4.5" maxSpeed="0.7333085083548219" /><vType id="vType_car_11.497442088701149" accel="1.0" decel="5.0" sigma="0.0" length="4.5" maxSpeed="3.1937339135280967" /><vType id="vType_car_3.6057838800324293" accel="1.0" decel="5.0" sigma="0.0" length="4.5" maxSpeed="1.0016066333423415" /><vType id="vType_car_2.4207659403340145" accel="1.0" decel="5.0" sigma="0.0" length="4.5" maxSpeed="0.6724349834261151" /><vType id="vType_car_3.744726795853509" accel="1.0" decel="5.0" sigma="0.0" length="4.5" maxSpeed="1.0402018877370858" /><vType id="vType_car_5.859730903354907" accel="1.0" decel="5.0" sigma="0.0" length="4.5" maxSpeed="1.6277030287096963" /><vType id="vType_car_3.043034543392742" accel="1.0" decel="5.0" sigma="0.0" length="4.5" maxSpeed="0.8452873731646505" /><vType id="vType_car_42.32954762722157" accel="1.0" decel="5.0" sigma="0.0" length="4.5" maxSpeed="11.758207674228215" /><vType id="vType_car_6.961126561315998" accel="1.0" decel="5.0" sigma="0.0" length="4.5" maxSpeed="1.9336462670322216" /><vType id="vType_car_35.749407395461645" accel="1.0" decel="5.0" sigma="0.0" length="4.5" maxSpeed="9.93039094318379" /><vType id="vType_car_2.8653964191708745" accel="1.0" decel="5.0" sigma="0.0" length="4.5" maxSpeed="0.7959434497696873" /><vType id="vType_car_6.242404710551071" accel="1.0" decel="5.0" sigma="0.0" length="4.5" maxSpeed="1.7340013084864085" /><vType id="vType_car_2.8106649904396313" accel="1.0" decel="5.0" sigma="0.0" length="4.5" maxSpeed="0.7807402751221197" /><vType id="vType_car_3.3216104463689393" accel="1.0" decel="5.0" sigma="0.0" length="4.5" maxSpeed="0.9226695684358165" /><vType id="vType_car_3.616933245491652" accel="1.0" decel="5.0" sigma="0.0" length="4.5" maxSpeed="1.0047036793032367" /><vType id="vType_car_49.21058104239125" accel="1.0" decel="5.0" sigma="0.0" length="4.5" maxSpeed="13.669605845108679" /><vType id="vType_car_48.49878624245303" accel="1.0" decel="5.0" sigma="0.0" length="4.5" maxSpeed="13.471885067348063" /><vType id="vType_car_46.45999217459496" accel="1.0" decel="5.0" sigma="0.0" length="4.5" maxSpeed="12.905553381831933" /><vType id="vType_car_36.846249821988785" accel="1.0" decel="5.0" sigma="0.0" length="4.5" maxSpeed="10.235069394996884" /><vType id="vType_car_55.609938799248205" accel="1.0" decel="5.0" sigma="0.0" length="4.5" maxSpeed="15.44720522201339" /><vType id="vType_car_19.753458581609245" accel="1.0" decel="5.0" sigma="0.0" length="4.5" maxSpeed="5.48707182822479" /><vType id="vType_car_8.04872444871517" accel="1.0" decel="5.0" sigma="0.0" length="4.5" maxSpeed="2.2357567913097696" /><vType id="vType_car_51.63774555369762" accel="1.0" decel="5.0" sigma="0.0" length="4.5" maxSpeed="14.34381820936045" /><vType id="vType_car_18.314481004350426" accel="1.0" decel="5.0" sigma="0.0" length="4.5" maxSpeed="5.087355834541785" /><vType id="vType_car_31.85001735926369" accel="1.0" decel="5.0" sigma="0.0" length="4.5" maxSpeed="8.847227044239913" /><vType id="vType_car_8.748724632702578" accel="1.0" decel="5.0" sigma="0.0" length="4.5" maxSpeed="2.430201286861827" /><vType id="vType_car_2.9098345152127627" accel="1.0" decel="5.0" sigma="0.0" length="4.5" maxSpeed="0.8082873653368785" /><vType id="vType_car_13.832480499752421" accel="1.0" decel="5.0" sigma="0.0" length="4.5" maxSpeed="3.8423556943756725" /><vType id="vType_car_29.702234803770548" accel="1.0" decel="5.0" sigma="0.0" length="4.5" maxSpeed="8.250620778825152" /><vType id="vType_car_2.806105472059257" accel="1.0" decel="5.0" sigma="0.0" length="4.5" maxSpeed="0.7794737422386825" /><vType id="vType_car_24.098427387369355" accel="1.0" decel="5.0" sigma="0.0" length="4.5" maxSpeed="6.6940076076025985" /><vType id="vType_car_2.1065122248495793" accel="1.0" decel="5.0" sigma="0.0" length="4.5" maxSpeed="0.5851422846804387" /><vType id="vType_car_23.578114609126683" accel="1.0" decel="5.0" sigma="0.0" length="4.5" maxSpeed="6.549476280312967" /><vType id="vType_car_4.192276682433672" accel="1.0" decel="5.0" sigma="0.0" length="4.5" maxSpeed="1.16452130067602" /><vType id="vType_car_52.78221352106081" accel="1.0" decel="5.0" sigma="0.0" length="4.5" maxSpeed="14.661725978072447" /><vType id="vType_car_2.6793583878307548" accel="1.0" decel="5.0" sigma="0.0" length="4.5" maxSpeed="0.7442662188418763" /><vType id="vType_car_44.01181163652046" accel="1.0" decel="5.0" sigma="0.0" length="4.5" maxSpeed="12.225503232366794" /><vType id="vType_car_2.7665896460960164" accel="1.0" decel="5.0" sigma="0.0" length="4.5" maxSpeed="0.7684971239155601" /><vType id="vType_car_6.020268147058349" accel="1.0" decel="5.0" sigma="0.0" length="4.5" maxSpeed="1.672296707516208" /><vType id="vType_car_2.6802236841991594" accel="1.0" decel="5.0" sigma="0.0" length="4.5" maxSpeed="0.7445065789442109" /><vType id="vType_car_2.7017445048459314" accel="1.0" decel="5.0" sigma="0.0" length="4.5" maxSpeed="0.7504845846794254" /><route id="route_north_to_east" edges="north_to_center center_to_east" /><route id="route_north_to_south" edges="north_to_center center_to_south" /><route id="route_north_to_west" edges="north_to_center center_to_west" /><route id="route_east_to_west" edges="east_to_center center_to_west" /><route id="route_east_to_south" edges="east_to_center center_to_south" /><route id="route_east_to_north" edges="east_to_center center_to_north" /><route id="route_south_to_west" edges="south_to_center center_to_west" /><route id="route_south_to_north" edges="south_to_center center_to_north" /><route id="route_south_to_east" edges="south_to_center center_to_east" /><route id="route_west_to_south" edges="west_to_center center_to_south" /><route id="route_west_to_north" edges="west_to_center center_to_north" /><route id="route_west_to_east" edges="west_to_center center_to_east" /><vehicle id="veh921" type="vType_car_14.253354461913009" route="route_west_to_north" depart="0.05" /><vehicle id="veh1011" type="vType_car_18.247799859871346" route="route_west_to_east" depart="0.05" /><vehicle id="veh1017" type="vType_car_20.91666088122017" route="route_west_to_east" depart="0.05" /><vehicle id="veh1023" type="vType_car_20.39448345963228" route="route_west_to_east" depart="0.05" /><vehicle id="veh1083" type="vType_car_8.00396853695717" route="route_east_to_north" depart="14.39" /><vehicle id="veh1104" type="vType_car_56.322708944376686" route="route_west_to_east" depart="20.04" /><vehicle id="veh1120" type="vType_car_40.097407781033255" route="route_west_to_east" depart="23.64" /><vehicle id="veh1126" type="vType_car_60.31251757313853" route="route_west_to_east" depart="25.82" /><vehicle id="veh1151" type="vType_car_46.45999217459496" route="route_east_to_west" depart="31.02" /><vehicle id="veh1170" type="vType_car_24.098427387369355" route="route_east_to_south" depart="36.66" /><vehicle id="veh1177" type="vType_car_23.578114609126683" route="route_east_to_south" depart="38.76" /><vehicle id="veh1181" type="vType_car_52.78221352106081" route="route_east_to_west" depart="40.81" /><vehicle id="veh1185" type="vType_car_44.01181163652046" route="route_east_to_west" depart="45.22" /></routes>