<?xml version='1.0' encoding='utf-8'?>
<routes><vType id="vType_car_22.778777235479634" accel="1.0" decel="5.0" sigma="0.0" length="4.5" maxSpeed="6.327438120966565" /><vType id="vType_car_17.031016265230555" accel="1.0" decel="5.0" sigma="0.0" length="4.5" maxSpeed="4.7308378514529315" /><vType id="vType_car_40.92320831673011" accel="1.0" decel="5.0" sigma="0.0" length="4.5" maxSpeed="11.367557865758364" /><vType id="vType_car_30.097880873209874" accel="1.0" decel="5.0" sigma="0.0" length="4.5" maxSpeed="8.360522464780521" /><vType id="vType_car_6.32804384207986" accel="1.0" decel="5.0" sigma="0.0" length="4.5" maxSpeed="1.7577899561332944" /><vType id="vType_car_5.666589476310528" accel="1.0" decel="5.0" sigma="0.0" length="4.5" maxSpeed="1.57405263230848" /><vType id="vType_car_23.942984658301516" accel="1.0" decel="5.0" sigma="0.0" length="4.5" maxSpeed="6.650829071750421" /><vType id="vType_car_23.86079935860431" accel="1.0" decel="5.0" sigma="0.0" length="4.5" maxSpeed="6.62799982183453" /><vType id="vType_truck_16.515870876123163" accel="1.0" decel="5.0" sigma="0.0" length="8" maxSpeed="4.587741910034212" /><vType id="vType_car_23.93559861086201" accel="1.0" decel="5.0" sigma="0.0" length="4.5" maxSpeed="6.648777391906114" /><vType id="vType_car_29.300641439063263" accel="1.0" decel="5.0" sigma="0.0" length="4.5" maxSpeed="8.139067066406461" /><vType id="vType_car_18.838193222203362" accel="1.0" decel="5.0" sigma="0.0" length="4.5" maxSpeed="5.232831450612045" /><vType id="vType_car_23.579915555169382" accel="1.0" decel="5.0" sigma="0.0" length="4.5" maxSpeed="6.549976543102606" /><vType id="vType_car_29.918453463836467" accel="1.0" decel="5.0" sigma="0.0" length="4.5" maxSpeed="8.310681517732352" /><vType id="vType_car_20.711769407885445" accel="1.0" decel="5.0" sigma="0.0" length="4.5" maxSpeed="5.753269279968179" /><vType id="vType_car_20.04193539687826" accel="1.0" decel="5.0" sigma="0.0" length="4.5" maxSpeed="5.567204276910627" /><vType id="vType_car_17.090511457536508" accel="1.0" decel="5.0" sigma="0.0" length="4.5" maxSpeed="4.747364293760141" /><vType id="vType_car_34.66780159851056" accel="1.0" decel="5.0" sigma="0.0" length="4.5" maxSpeed="9.629944888475155" /><vType id="vType_car_28.88686135847411" accel="1.0" decel="5.0" sigma="0.0" length="4.5" maxSpeed="8.024128155131697" /><vType id="vType_car_16.863541093665106" accel="1.0" decel="5.0" sigma="0.0" length="4.5" maxSpeed="4.684316970462529" /><vType id="vType_car_16.434365464787376" accel="1.0" decel="5.0" sigma="0.0" length="4.5" maxSpeed="4.565101517996493" /><vType id="vType_car_20.594934533622897" accel="1.0" decel="5.0" sigma="0.0" length="4.5" maxSpeed="5.720815148228582" /><vType id="vType_car_21.887087619462456" accel="1.0" decel="5.0" sigma="0.0" length="4.5" maxSpeed="6.079746560961793" /><vType id="vType_car_30.81592260973268" accel="1.0" decel="5.0" sigma="0.0" length="4.5" maxSpeed="8.559978502703522" /><vType id="vType_car_13.660777816252725" accel="1.0" decel="5.0" sigma="0.0" length="4.5" maxSpeed="3.794660504514646" /><vType id="vType_car_26.600058095622394" accel="1.0" decel="5.0" sigma="0.0" length="4.5" maxSpeed="7.388905026561776" /><vType id="vType_car_11.34562752218852" accel="1.0" decel="5.0" sigma="0.0" length="4.5" maxSpeed="3.151563200607922" /><vType id="vType_car_22.869660847455023" accel="1.0" decel="5.0" sigma="0.0" length="4.5" maxSpeed="6.352683568737506" /><vType id="vType_car_10.097740206878223" accel="1.0" decel="5.0" sigma="0.0" length="4.5" maxSpeed="2.8049278352439506" /><vType id="vType_car_25.63319981294191" accel="1.0" decel="5.0" sigma="0.0" length="4.5" maxSpeed="7.120333281372753" /><vType id="vType_car_9.095251550048078" accel="1.0" decel="5.0" sigma="0.0" length="4.5" maxSpeed="2.5264587639022436" /><vType id="vType_car_5.30477296921071" accel="1.0" decel="5.0" sigma="0.0" length="4.5" maxSpeed="1.473548047002975" /><vType id="vType_car_4.120116689972031" accel="1.0" decel="5.0" sigma="0.0" length="4.5" maxSpeed="1.1444768583255642" /><vType id="vType_car_20.72557924232343" accel="1.0" decel="5.0" sigma="0.0" length="4.5" maxSpeed="5.757105345089841" /><vType id="vType_car_9.919310760192975" accel="1.0" decel="5.0" sigma="0.0" length="4.5" maxSpeed="2.755364100053604" /><vType id="vType_car_10.504147347835934" accel="1.0" decel="5.0" sigma="0.0" length="4.5" maxSpeed="2.917818707732204" /><vType id="vType_car_26.83608990241242" accel="1.0" decel="5.0" sigma="0.0" length="4.5" maxSpeed="7.454469417336783" /><vType id="vType_car_8.344315490743707" accel="1.0" decel="5.0" sigma="0.0" length="4.5" maxSpeed="2.317865414095474" /><vType id="vType_car_21.325008967694156" accel="1.0" decel="5.0" sigma="0.0" length="4.5" maxSpeed="5.923613602137266" /><vType id="vType_car_31.098715062941857" accel="1.0" decel="5.0" sigma="0.0" length="4.5" maxSpeed="8.638531961928294" /><vType id="vType_car_4.6394449103687085" accel="1.0" decel="5.0" sigma="0.0" length="4.5" maxSpeed="1.2887346973246412" /><vType id="vType_car_2.8994610490680515" accel="1.0" decel="5.0" sigma="0.0" length="4.5" maxSpeed="0.8054058469633476" /><vType id="vType_car_29.358072946628102" accel="1.0" decel="5.0" sigma="0.0" length="4.5" maxSpeed="8.15502026295225" /><vType id="vType_car_30.89423911639062" accel="1.0" decel="5.0" sigma="0.0" length="4.5" maxSpeed="8.581733087886283" /><vType id="vType_car_6.353977043331443" accel="1.0" decel="5.0" sigma="0.0" length="4.5" maxSpeed="1.7649936231476229" /><vType id="vType_car_19.95239993317365" accel="1.0" decel="5.0" sigma="0.0" length="4.5" maxSpeed="5.542333314770458" /><vType id="vType_car_5.680572479035741" accel="1.0" decel="5.0" sigma="0.0" length="4.5" maxSpeed="1.57793679973215" /><vType id="vType_car_8.685958994167988" accel="1.0" decel="5.0" sigma="0.0" length="4.5" maxSpeed="2.4127663872688854" /><vType id="vType_car_30.26131193366384" accel="1.0" decel="5.0" sigma="0.0" length="4.5" maxSpeed="8.40591998157329" /><vType id="vType_car_30.257843539388002" accel="1.0" decel="5.0" sigma="0.0" length="4.5" maxSpeed="8.404956538718888" /><vType id="vType_car_22.859080679582675" accel="1.0" decel="5.0" sigma="0.0" length="4.5" maxSpeed="6.3497446332174095" /><vType id="vType_car_18.54745528107246" accel="1.0" decel="5.0" sigma="0.0" length="4.5" maxSpeed="5.152070911409016" /><vType id="vType_truck_14.354810358097925" accel="1.0" decel="5.0" sigma="0.0" length="8" maxSpeed="3.987447321693868" /><vType id="vType_car_3.777726317540352" accel="1.0" decel="5.0" sigma="0.0" length="4.5" maxSpeed="1.0493684215389867" /><vType id="vType_car_3.658260753907851" accel="1.0" decel="5.0" sigma="0.0" length="4.5" maxSpeed="1.0161835427521808" /><vType id="vType_car_19.4589257516513" accel="1.0" decel="5.0" sigma="0.0" length="4.5" maxSpeed="5.405257153236472" /><vType id="vType_car_19.15523777902602" accel="1.0" decel="5.0" sigma="0.0" length="4.5" maxSpeed="5.320899383062783" /><vType id="vType_car_18.244315243576427" accel="1.0" decel="5.0" sigma="0.0" length="4.5" maxSpeed="5.067865345437896" /><vType id="vType_car_27.393699941210514" accel="1.0" decel="5.0" sigma="0.0" length="4.5" maxSpeed="7.609361094780698" /><vType id="vType_car_5.342511793199336" accel="1.0" decel="5.0" sigma="0.0" length="4.5" maxSpeed="1.484031053666482" /><vType id="vType_car_26.00758291008861" accel="1.0" decel="5.0" sigma="0.0" length="4.5" maxSpeed="7.224328586135725" /><vType id="vType_car_21.507785110860713" accel="1.0" decel="5.0" sigma="0.0" length="4.5" maxSpeed="5.974384753016865" /><vType id="vType_car_7.63231366710787" accel="1.0" decel="5.0" sigma="0.0" length="4.5" maxSpeed="2.120087129752186" /><vType id="vType_car_34.44832088084489" accel="1.0" decel="5.0" sigma="0.0" length="4.5" maxSpeed="9.568978022456914" /><vType id="vType_car_3.4733998670948294" accel="1.0" decel="5.0" sigma="0.0" length="4.5" maxSpeed="0.9648332964152304" /><vType id="vType_car_27.90579983062465" accel="1.0" decel="5.0" sigma="0.0" length="4.5" maxSpeed="7.751611064062403" /><vType id="vType_car_22.524739644154007" accel="1.0" decel="5.0" sigma="0.0" length="4.5" maxSpeed="6.256872123376112" /><vType id="vType_car_22.328370219211095" accel="1.0" decel="5.0" sigma="0.0" length="4.5" maxSpeed="6.202325060891971" /><vType id="vType_car_17.360936359760107" accel="1.0" decel="5.0" sigma="0.0" length="4.5" maxSpeed="4.822482322155585" /><vType id="vType_car_1.751671351343314" accel="1.0" decel="5.0" sigma="0.0" length="4.5" maxSpeed="0.48657537537314277" /><vType id="vType_car_20.296774354789182" accel="1.0" decel="5.0" sigma="0.0" length="4.5" maxSpeed="5.637992876330328" /><vType id="vType_car_13.191943896899536" accel="1.0" decel="5.0" sigma="0.0" length="4.5" maxSpeed="3.664428860249871" /><vType id="vType_car_16.424916322603394" accel="1.0" decel="5.0" sigma="0.0" length="4.5" maxSpeed="4.562476756278721" /><vType id="vType_car_30.364767594962938" accel="1.0" decel="5.0" sigma="0.0" length="4.5" maxSpeed="8.434657665267483" /><vType id="vType_car_4.52612028645002" accel="1.0" decel="5.0" sigma="0.0" length="4.5" maxSpeed="1.2572556351250055" /><vType id="vType_car_15.197873114791095" accel="1.0" decel="5.0" sigma="0.0" length="4.5" maxSpeed="4.221631420775304" /><vType id="vType_car_20.819720422345757" accel="1.0" decel="5.0" sigma="0.0" length="4.5" maxSpeed="5.783255672873821" /><vType id="vType_car_26.473356318078967" accel="1.0" decel="5.0" sigma="0.0" length="4.5" maxSpeed="7.353710088355268" /><vType id="vType_car_22.106623421714847" accel="1.0" decel="5.0" sigma="0.0" length="4.5" maxSpeed="6.140728728254124" /><vType id="vType_car_30.915105831536156" accel="1.0" decel="5.0" sigma="0.0" length="4.5" maxSpeed="8.587529397648932" /><vType id="vType_car_16.45853746587226" accel="1.0" decel="5.0" sigma="0.0" length="4.5" maxSpeed="4.571815962742295" /><vType id="vType_car_8.46119062398817" accel="1.0" decel="5.0" sigma="0.0" length="4.5" maxSpeed="2.3503307288856026" /><vType id="vType_car_17.603587174071833" accel="1.0" decel="5.0" sigma="0.0" length="4.5" maxSpeed="4.889885326131065" /><vType id="vType_car_23.7277900618682" accel="1.0" decel="5.0" sigma="0.0" length="4.5" maxSpeed="6.591052794963388" /><vType id="vType_car_0.944431579385088" accel="1.0" decel="5.0" sigma="0.0" length="4.5" maxSpeed="0.26234210538474667" /><vType id="vType_car_19.3916419358987" accel="1.0" decel="5.0" sigma="0.0" length="4.5" maxSpeed="5.3865672044163055" /><vType id="vType_car_4.075785219079585" accel="1.0" decel="5.0" sigma="0.0" length="4.5" maxSpeed="1.1321625608554404" /><vType id="vType_car_5.8072009731494125" accel="1.0" decel="5.0" sigma="0.0" length="4.5" maxSpeed="1.6131113814303923" /><vType id="vType_car_19.121120061162326" accel="1.0" decel="5.0" sigma="0.0" length="4.5" maxSpeed="5.311422239211757" /><vType id="vType_car_31.651559067066767" accel="1.0" decel="5.0" sigma="0.0" length="4.5" maxSpeed="8.79209974085188" /><vType id="vType_car_23.163928888909968" accel="1.0" decel="5.0" sigma="0.0" length="4.5" maxSpeed="6.43442469136388" /><vType id="vType_car_13.904228228426316" accel="1.0" decel="5.0" sigma="0.0" length="4.5" maxSpeed="3.86228561900731" /><vType id="vType_car_33.46553472411153" accel="1.0" decel="5.0" sigma="0.0" length="4.5" maxSpeed="9.295981867808758" /><vType id="vType_car_9.090452498965668" accel="1.0" decel="5.0" sigma="0.0" length="4.5" maxSpeed="2.52512569415713" /><vType id="vType_car_35.8451991682543" accel="1.0" decel="5.0" sigma="0.0" length="4.5" maxSpeed="9.956999768959527" /><vType id="vType_car_3.5258778963709956" accel="1.0" decel="5.0" sigma="0.0" length="4.5" maxSpeed="0.979410526769721" /><vType id="vType_car_18.251451353732605" accel="1.0" decel="5.0" sigma="0.0" length="4.5" maxSpeed="5.069847598259057" /><vType id="vType_car_16.924860683980533" accel="1.0" decel="5.0" sigma="0.0" length="4.5" maxSpeed="4.701350189994592" /><vType id="vType_car_3.19588900524061" accel="1.0" decel="5.0" sigma="0.0" length="4.5" maxSpeed="0.8877469459001694" /><vType id="vType_car_3.9457477371723897" accel="1.0" decel="5.0" sigma="0.0" length="4.5" maxSpeed="1.0960410381034416" /><vType id="vType_car_31.225064086998874" accel="1.0" decel="5.0" sigma="0.0" length="4.5" maxSpeed="8.673628913055243" /><vType id="vType_car_4.533271581048423" accel="1.0" decel="5.0" sigma="0.0" length="4.5" maxSpeed="1.259242105846784" /><vType id="vType_car_15.313774419322078" accel="1.0" decel="5.0" sigma="0.0" length="4.5" maxSpeed="4.253826227589466" /><vType id="vType_car_3.2080691744191885" accel="1.0" decel="5.0" sigma="0.0" length="4.5" maxSpeed="0.8911303262275523" /><vType id="vType_car_18.910915310202952" accel="1.0" decel="5.0" sigma="0.0" length="4.5" maxSpeed="5.253032030611931" /><vType id="vType_car_18.326427822071082" accel="1.0" decel="5.0" sigma="0.0" length="4.5" maxSpeed="5.090674395019745" /><vType id="vType_car_26.331859625138765" accel="1.0" decel="5.0" sigma="0.0" length="4.5" maxSpeed="7.314405451427435" /><vType id="vType_car_7.89842206910387" accel="1.0" decel="5.0" sigma="0.0" length="4.5" maxSpeed="2.1940061303066307" /><vType id="vType_car_3.5182965572968485" accel="1.0" decel="5.0" sigma="0.0" length="4.5" maxSpeed="0.9773045992491246" /><vType id="vType_car_3.35794675667883" accel="1.0" decel="5.0" sigma="0.0" length="4.5" maxSpeed="0.9327629879663416" /><vType id="vType_car_16.56835746279653" accel="1.0" decel="5.0" sigma="0.0" length="4.5" maxSpeed="4.602321517443481" /><vType id="vType_car_18.32143544702778" accel="1.0" decel="5.0" sigma="0.0" length="4.5" maxSpeed="5.089287624174384" /><vType id="vType_car_13.257614277829507" accel="1.0" decel="5.0" sigma="0.0" length="4.5" maxSpeed="3.6826706327304186" /><vType id="vType_car_3.6946381599337577" accel="1.0" decel="5.0" sigma="0.0" length="4.5" maxSpeed="1.0262883777593772" /><vType id="vType_car_16.726849281667178" accel="1.0" decel="5.0" sigma="0.0" length="4.5" maxSpeed="4.646347022685327" /><vType id="vType_car_3.9208738574953053" accel="1.0" decel="5.0" sigma="0.0" length="4.5" maxSpeed="1.0891316270820293" /><vType id="vType_car_11.134740226433767" accel="1.0" decel="5.0" sigma="0.0" length="4.5" maxSpeed="3.0929833962316016" /><vType id="vType_car_43.29117788885339" accel="1.0" decel="5.0" sigma="0.0" length="4.5" maxSpeed="12.025327191348163" /><vType id="vType_car_22.073289771628556" accel="1.0" decel="5.0" sigma="0.0" length="4.5" maxSpeed="6.131469381007932" /><vType id="vType_car_51.53629445227311" accel="1.0" decel="5.0" sigma="0.0" length="4.5" maxSpeed="14.315637347853642" /><vType id="vType_car_4.339999802535293" accel="1.0" decel="5.0" sigma="0.0" length="4.5" maxSpeed="1.205555500704248" /><vType id="vType_car_36.04741079387819" accel="1.0" decel="5.0" sigma="0.0" length="4.5" maxSpeed="10.013169664966165" /><vType id="vType_car_54.73804058516788" accel="1.0" decel="5.0" sigma="0.0" length="4.5" maxSpeed="15.205011273657744" /><vType id="vType_car_29.51334737103696" accel="1.0" decel="5.0" sigma="0.0" length="4.5" maxSpeed="8.198152047510266" /><vType id="vType_car_32.22426841857394" accel="1.0" decel="5.0" sigma="0.0" length="4.5" maxSpeed="8.951185671826094" /><vType id="vType_car_31.36262977361504" accel="1.0" decel="5.0" sigma="0.0" length="4.5" maxSpeed="8.711841603781956" /><vType id="vType_car_20.17772004822573" accel="1.0" decel="5.0" sigma="0.0" length="4.5" maxSpeed="5.604922235618258" /><vType id="vType_car_23.70515220568307" accel="1.0" decel="5.0" sigma="0.0" length="4.5" maxSpeed="6.584764501578631" /><vType id="vType_car_16.335642223068447" accel="1.0" decel="5.0" sigma="0.0" length="4.5" maxSpeed="4.5376783952967905" /><vType id="vType_car_25.405557244308714" accel="1.0" decel="5.0" sigma="0.0" length="4.5" maxSpeed="7.057099234530198" /><vType id="vType_car_16.696030816157126" accel="1.0" decel="5.0" sigma="0.0" length="4.5" maxSpeed="4.6377863378214235" /><vType id="vType_car_30.8400642850674" accel="1.0" decel="5.0" sigma="0.0" length="4.5" maxSpeed="8.566684523629833" /><vType id="vType_car_17.628653612810623" accel="1.0" decel="5.0" sigma="0.0" length="4.5" maxSpeed="4.896848225780729" /><vType id="vType_car_9.59274579347177" accel="1.0" decel="5.0" sigma="0.0" length="4.5" maxSpeed="2.664651609297714" /><vType id="vType_car_21.737872608066862" accel="1.0" decel="5.0" sigma="0.0" length="4.5" maxSpeed="6.03829794668524" /><vType id="vType_car_22.337679432992143" accel="1.0" decel="5.0" sigma="0.0" length="4.5" maxSpeed="6.204910953608929" /><vType id="vType_car_34.51265338696153" accel="1.0" decel="5.0" sigma="0.0" length="4.5" maxSpeed="9.58684816304487" /><vType id="vType_car_31.508246319791738" accel="1.0" decel="5.0" sigma="0.0" length="4.5" maxSpeed="8.752290644386594" /><vType id="vType_car_4.21529016904555" accel="1.0" decel="5.0" sigma="0.0" length="4.5" maxSpeed="1.1709139358459861" /><vType id="vType_car_6.389377815026457" accel="1.0" decel="5.0" sigma="0.0" length="4.5" maxSpeed="1.7748271708406824" /><vType id="vType_car_21.90314035878327" accel="1.0" decel="5.0" sigma="0.0" length="4.5" maxSpeed="6.084205655217574" /><vType id="vType_car_7.031489282984179" accel="1.0" decel="5.0" sigma="0.0" length="4.5" maxSpeed="1.9531914674956052" /><vType id="vType_car_15.983614091635943" accel="1.0" decel="5.0" sigma="0.0" length="4.5" maxSpeed="4.4398928032322065" /><vType id="vType_car_21.78700217551957" accel="1.0" decel="5.0" sigma="0.0" length="4.5" maxSpeed="6.051945048755436" /><vType id="vType_car_26.299029259903303" accel="1.0" decel="5.0" sigma="0.0" length="4.5" maxSpeed="7.305285905528695" /><vType id="vType_car_14.400497778137574" accel="1.0" decel="5.0" sigma="0.0" length="4.5" maxSpeed="4.0001382717048815" /><vType id="vType_truck_6.235977204907312" accel="1.0" decel="5.0" sigma="0.0" length="8" maxSpeed="1.732215890252031" /><vType id="vType_car_27.884571413771447" accel="1.0" decel="5.0" sigma="0.0" length="4.5" maxSpeed="7.745714281603179" /><vType id="vType_car_18.519810987647336" accel="1.0" decel="5.0" sigma="0.0" length="4.5" maxSpeed="5.144391941013149" /><vType id="vType_car_28.029119619586616" accel="1.0" decel="5.0" sigma="0.0" length="4.5" maxSpeed="7.785866560996282" /><vType id="vType_car_17.05504116341124" accel="1.0" decel="5.0" sigma="0.0" length="4.5" maxSpeed="4.7375114342809" /><vType id="vType_car_26.60156311534086" accel="1.0" decel="5.0" sigma="0.0" length="4.5" maxSpeed="7.389323087594683" /><vType id="vType_car_19.304194406976446" accel="1.0" decel="5.0" sigma="0.0" length="4.5" maxSpeed="5.362276224160124" /><vType id="vType_car_27.996675058448407" accel="1.0" decel="5.0" sigma="0.0" length="4.5" maxSpeed="7.776854182902335" /><vType id="vType_car_21.04089517779783" accel="1.0" decel="5.0" sigma="0.0" length="4.5" maxSpeed="5.8446931049438415" /><vType id="vType_car_19.239440013251897" accel="1.0" decel="5.0" sigma="0.0" length="4.5" maxSpeed="5.344288892569971" /><vType id="vType_car_18.677289305257307" accel="1.0" decel="5.0" sigma="0.0" length="4.5" maxSpeed="5.1881359181270295" /><vType id="vType_car_28.59958824016606" accel="1.0" decel="5.0" sigma="0.0" length="4.5" maxSpeed="7.944330066712794" /><vType id="vType_bus_8.427831556355505" accel="1.0" decel="5.0" sigma="0.0" length="13" maxSpeed="2.3410643212098625" /><vType id="vType_car_22.143759294918723" accel="1.0" decel="5.0" sigma="0.0" length="4.5" maxSpeed="6.151044248588534" /><vType id="vType_car_4.719002865515714" accel="1.0" decel="5.0" sigma="0.0" length="4.5" maxSpeed="1.3108341293099206" /><vType id="vType_car_4.309102827500812" accel="1.0" decel="5.0" sigma="0.0" length="4.5" maxSpeed="1.1969730076391145" /><vType id="vType_car_28.665615713913972" accel="1.0" decel="5.0" sigma="0.0" length="4.5" maxSpeed="7.96267103164277" /><vType id="vType_car_32.867667038093956" accel="1.0" decel="5.0" sigma="0.0" length="4.5" maxSpeed="9.129907510581655" /><vType id="vType_car_21.831488826068405" accel="1.0" decel="5.0" sigma="0.0" length="4.5" maxSpeed="6.064302451685668" /><vType id="vType_car_17.593011580964607" accel="1.0" decel="5.0" sigma="0.0" length="4.5" maxSpeed="4.8869476613790575" /><vType id="vType_car_21.168251523366212" accel="1.0" decel="5.0" sigma="0.0" length="4.5" maxSpeed="5.880069867601725" /><vType id="vType_car_27.055921757042277" accel="1.0" decel="5.0" sigma="0.0" length="4.5" maxSpeed="7.515533821400632" /><vType id="vType_car_15.601696730056936" accel="1.0" decel="5.0" sigma="0.0" length="4.5" maxSpeed="4.333804647238038" /><vType id="vType_car_28.070410757312484" accel="1.0" decel="5.0" sigma="0.0" length="4.5" maxSpeed="7.79733632147569" /><vType id="vType_bus_18.7198724340378" accel="1.0" decel="5.0" sigma="0.0" length="13" maxSpeed="5.1999645650105" /><vType id="vType_car_18.228350708105083" accel="1.0" decel="5.0" sigma="0.0" length="4.5" maxSpeed="5.063430752251412" /><vType id="vType_bus_17.48237624145577" accel="1.0" decel="5.0" sigma="0.0" length="13" maxSpeed="4.856215622626603" /><vType id="vType_car_30.928708741526787" accel="1.0" decel="5.0" sigma="0.0" length="4.5" maxSpeed="8.59130798375744" /><vType id="vType_car_7.542339167085679" accel="1.0" decel="5.0" sigma="0.0" length="4.5" maxSpeed="2.095094213079355" /><vType id="vType_car_22.61472115857083" accel="1.0" decel="5.0" sigma="0.0" length="4.5" maxSpeed="6.281866988491897" /><vType id="vType_bus_6.692445413006898" accel="1.0" decel="5.0" sigma="0.0" length="13" maxSpeed="1.8590126147241384" /><vType id="vType_car_8.620963808231075" accel="1.0" decel="5.0" sigma="0.0" length="4.5" maxSpeed="2.394712168953076" /><vType id="vType_car_7.555452635080704" accel="1.0" decel="5.0" sigma="0.0" length="4.5" maxSpeed="2.0987368430779734" /><vType id="vType_car_19.631800202146472" accel="1.0" decel="5.0" sigma="0.0" length="4.5" maxSpeed="5.453277833929575" /><vType id="vType_car_35.73569520213753" accel="1.0" decel="5.0" sigma="0.0" length="4.5" maxSpeed="9.926582000593758" /><vType id="vType_car_20.623014569344473" accel="1.0" decel="5.0" sigma="0.0" length="4.5" maxSpeed="5.728615158151243" /><vType id="vType_car_8.858047391181577" accel="1.0" decel="5.0" sigma="0.0" length="4.5" maxSpeed="2.46056871977266" /><vType id="vType_car_21.185301815846998" accel="1.0" decel="5.0" sigma="0.0" length="4.5" maxSpeed="5.8848060599575" /><vType id="vType_car_19.3442574236244" accel="1.0" decel="5.0" sigma="0.0" length="4.5" maxSpeed="5.373404839895666" /><vType id="vType_car_9.85530616069281" accel="1.0" decel="5.0" sigma="0.0" length="4.5" maxSpeed="2.7375850446368917" /><vType id="vType_car_9.249974212246094" accel="1.0" decel="5.0" sigma="0.0" length="4.5" maxSpeed="2.5694372811794706" /><vType id="vType_car_31.99920578165475" accel="1.0" decel="5.0" sigma="0.0" length="4.5" maxSpeed="8.888668272681874" /><vType id="vType_car_5.020545591743314" accel="1.0" decel="5.0" sigma="0.0" length="4.5" maxSpeed="1.3945959977064761" /><vType id="vType_car_19.71742545640126" accel="1.0" decel="5.0" sigma="0.0" length="4.5" maxSpeed="5.477062626778127" /><vType id="vType_car_24.123445374093176" accel="1.0" decel="5.0" sigma="0.0" length="4.5" maxSpeed="6.700957048359215" /><vType id="vType_car_12.258086283014135" accel="1.0" decel="5.0" sigma="0.0" length="4.5" maxSpeed="3.405023967503926" /><vType id="vType_car_22.55132309757965" accel="1.0" decel="5.0" sigma="0.0" length="4.5" maxSpeed="6.264256415994347" /><vType id="vType_car_6.304866941439155" accel="1.0" decel="5.0" sigma="0.0" length="4.5" maxSpeed="1.751351928177543" /><vType id="vType_car_19.745606834963013" accel="1.0" decel="5.0" sigma="0.0" length="4.5" maxSpeed="5.484890787489726" /><vType id="vType_car_13.48670225726905" accel="1.0" decel="5.0" sigma="0.0" length="4.5" maxSpeed="3.746306182574736" /><vType id="vType_car_14.494551662789167" accel="1.0" decel="5.0" sigma="0.0" length="4.5" maxSpeed="4.026264350774769" /><vType id="vType_car_29.894832119743587" accel="1.0" decel="5.0" sigma="0.0" length="4.5" maxSpeed="8.304120033262107" /><vType id="vType_car_30.438271123284828" accel="1.0" decel="5.0" sigma="0.0" length="4.5" maxSpeed="8.455075312023563" /><vType id="vType_car_3.95159137039135" accel="1.0" decel="5.0" sigma="0.0" length="4.5" maxSpeed="1.0976642695531529" /><vType id="vType_car_3.522171033711197" accel="1.0" decel="5.0" sigma="0.0" length="4.5" maxSpeed="0.9783808426975548" /><vType id="vType_car_4.623768339202189" accel="1.0" decel="5.0" sigma="0.0" length="4.5" maxSpeed="1.2843800942228303" /><vType id="vType_car_4.8829084106221785" accel="1.0" decel="5.0" sigma="0.0" length="4.5" maxSpeed="1.3563634473950497" /><vType id="vType_car_13.151909905034579" accel="1.0" decel="5.0" sigma="0.0" length="4.5" maxSpeed="3.6533083069540497" /><vType id="vType_car_4.065204247450556" accel="1.0" decel="5.0" sigma="0.0" length="4.5" maxSpeed="1.1292234020695988" /><vType id="vType_car_3.9515913703913506" accel="1.0" decel="5.0" sigma="0.0" length="4.5" maxSpeed="1.0976642695531529" /><vType id="vType_car_32.11446370338536" accel="1.0" decel="5.0" sigma="0.0" length="4.5" maxSpeed="8.920684362051489" /><vType id="vType_car_5.359431413161637" accel="1.0" decel="5.0" sigma="0.0" length="4.5" maxSpeed="1.4887309481004547" /><vType id="vType_car_73.49262374586667" accel="1.0" decel="5.0" sigma="0.0" length="4.5" maxSpeed="20.414617707185183" /><vType id="vType_car_36.19587388840401" accel="1.0" decel="5.0" sigma="0.0" length="4.5" maxSpeed="10.054409413445558" /><vType id="vType_car_15.20358097185543" accel="1.0" decel="5.0" sigma="0.0" length="4.5" maxSpeed="4.223216936626509" /><vType id="vType_car_18.281824159740154" accel="1.0" decel="5.0" sigma="0.0" length="4.5" maxSpeed="5.078284488816709" /><vType id="vType_car_17.396502867917846" accel="1.0" decel="5.0" sigma="0.0" length="4.5" maxSpeed="4.832361907754957" /><vType id="vType_car_4.62245160218137" accel="1.0" decel="5.0" sigma="0.0" length="4.5" maxSpeed="1.2840143339392696" /><vType id="vType_car_5.490468210871094" accel="1.0" decel="5.0" sigma="0.0" length="4.5" maxSpeed="1.5251300585753038" /><vType id="vType_car_20.02656567113643" accel="1.0" decel="5.0" sigma="0.0" length="4.5" maxSpeed="5.562934908649009" /><vType id="vType_car_5.143960905462859" accel="1.0" decel="5.0" sigma="0.0" length="4.5" maxSpeed="1.4288780292952385" /><vType id="vType_car_3.9683917951450485" accel="1.0" decel="5.0" sigma="0.0" length="4.5" maxSpeed="1.102331054206958" /><vType id="vType_car_6.667163697434979" accel="1.0" decel="5.0" sigma="0.0" length="4.5" maxSpeed="1.8519899159541606" /><route id="route_north_to_east" edges="north_to_center center_to_east" /><route id="route_north_to_south" edges="north_to_center center_to_south" /><route id="route_north_to_west" edges="north_to_center center_to_west" /><route id="route_east_to_west" edges="east_to_center center_to_west" /><route id="route_east_to_south" edges="east_to_center center_to_south" /><route id="route_east_to_north" edges="east_to_center center_to_north" /><route id="route_south_to_west" edges="south_to_center center_to_west" /><route id="route_south_to_north" edges="south_to_center center_to_north" /><route id="route_south_to_east" edges="south_to_center center_to_east" /><route id="route_west_to_south" edges="west_to_center center_to_south" /><route id="route_west_to_north" edges="west_to_center center_to_north" /><route id="route_west_to_east" edges="west_to_center center_to_east" /><vehicle id="veh4590" type="vType_car_22.778777235479634" route="route_north_to_south" depart="0.03" /><vehicle id="veh4611" type="vType_car_17.031016265230555" route="route_north_to_east" depart="0.03" /><vehicle id="veh4636" type="vType_car_30.097880873209874" route="route_east_to_south" depart="2.23" /><vehicle id="veh4640" type="vType_car_23.942984658301516" route="route_north_to_south" depart="10.67" /><vehicle id="veh4641" type="vType_car_23.86079935860431" route="route_north_to_south" depart="12.01" /><vehicle id="veh4642" type="vType_truck_16.515870876123163" route="route_north_to_east" depart="12.87" /><vehicle id="veh4649" type="vType_car_23.93559861086201" route="route_north_to_west" depart="14.91" /><vehicle id="veh4651" type="vType_car_29.300641439063263" route="route_north_to_south" depart="15.58" /><vehicle id="veh4653" type="vType_car_18.838193222203362" route="route_north_to_east" depart="15.98" /><vehicle id="veh4654" type="vType_car_23.579915555169382" route="route_north_to_south" depart="17.58" /><vehicle id="veh4655" type="vType_car_29.918453463836467" route="route_north_to_south" depart="18.04" /><vehicle id="veh4658" type="vType_car_20.711769407885445" route="route_north_to_west" depart="20.58" /><vehicle id="veh4659" type="vType_car_20.04193539687826" route="route_north_to_east" depart="20.61" /><vehicle id="veh4660" type="vType_car_17.090511457536508" route="route_north_to_east" depart="22.48" /><vehicle id="veh4661" type="vType_car_34.66780159851056" route="route_north_to_south" depart="24.18" /><vehicle id="veh4662" type="vType_car_28.88686135847411" route="route_north_to_south" depart="24.55" /><vehicle id="veh4663" type="vType_car_16.863541093665106" route="route_north_to_east" depart="24.98" /><vehicle id="veh4667" type="vType_car_16.434365464787376" route="route_north_to_west" depart="26.92" /><vehicle id="veh4669" type="vType_car_20.594934533622897" route="route_north_to_east" depart="27.72" /><vehicle id="veh4671" type="vType_car_21.887087619462456" route="route_north_to_east" depart="29.75" /><vehicle id="veh4672" type="vType_car_30.81592260973268" route="route_north_to_south" depart="30.45" /><vehicle id="veh4673" type="vType_car_13.660777816252725" route="route_north_to_east" depart="31.05" /><vehicle id="veh4674" type="vType_car_26.600058095622394" route="route_north_to_south" depart="31.32" /><vehicle id="veh4675" type="vType_car_11.34562752218852" route="route_east_to_north" depart="31.35" /><vehicle id="veh4677" type="vType_car_22.869660847455023" route="route_north_to_south" depart="31.92" /><vehicle id="veh4679" type="vType_car_10.097740206878223" route="route_north_to_east"