<?xml version='1.0' encoding='utf-8'?>
<routes><vType id="vType_car_20.679054093099936" accel="1.0" decel="5.0" sigma="0.0" length="4.5" maxSpeed="5.74418169252776" /><vType id="vType_car_10.888976432274127" accel="1.0" decel="5.0" sigma="0.0" length="4.5" maxSpeed="3.0247156756317017" /><vType id="vType_car_14.997717306062922" accel="1.0" decel="5.0" sigma="0.0" length="4.5" maxSpeed="4.166032585017478" /><vType id="vType_car_18.252749359519868" accel="1.0" decel="5.0" sigma="0.0" length="4.5" maxSpeed="5.070208155422185" /><vType id="vType_car_18.404673402006956" accel="1.0" decel="5.0" sigma="0.0" length="4.5" maxSpeed="5.1124092783352655" /><vType id="vType_car_19.903171682906613" accel="1.0" decel="5.0" sigma="0.0" length="4.5" maxSpeed="5.528658800807393" /><vType id="vType_car_16.5003038111799" accel="1.0" decel="5.0" sigma="0.0" length="4.5" maxSpeed="4.58341772532775" /><vType id="vType_car_22.81729450102117" accel="1.0" decel="5.0" sigma="0.0" length="4.5" maxSpeed="6.338137361394769" /><vType id="vType_car_13.921746689230696" accel="1.0" decel="5.0" sigma="0.0" length="4.5" maxSpeed="3.867151858119638" /><vType id="vType_car_12.47357655275488" accel="1.0" decel="5.0" sigma="0.0" length="4.5" maxSpeed="3.464882375765244" /><vType id="vType_car_13.218284081617634" accel="1.0" decel="5.0" sigma="0.0" length="4.5" maxSpeed="3.6717455782271204" /><vType id="vType_car_18.80855564839889" accel="1.0" decel="5.0" sigma="0.0" length="4.5" maxSpeed="5.224598791221914" /><vType id="vType_car_27.386023788541532" accel="1.0" decel="5.0" sigma="0.0" length="4.5" maxSpeed="7.607228830150426" /><vType id="vType_car_22.62835725383958" accel="1.0" decel="5.0" sigma="0.0" length="4.5" maxSpeed="6.285654792733217" /><vType id="vType_car_26.16187200498803" accel="1.0" decel="5.0" sigma="0.0" length="4.5" maxSpeed="7.26718666805223" /><vType id="vType_car_43.94288668147423" accel="1.0" decel="5.0" sigma="0.0" length="4.5" maxSpeed="12.206357411520619" /><vType id="vType_car_18.10428187186567" accel="1.0" decel="5.0" sigma="0.0" length="4.5" maxSpeed="5.028967186629353" /><vType id="vType_car_3.8348183406973413" accel="1.0" decel="5.0" sigma="0.0" length="4.5" maxSpeed="1.0652273168603725" /><vType id="vType_car_5.914580304831205" accel="1.0" decel="5.0" sigma="0.0" length="4.5" maxSpeed="1.6429389735642235" /><vType id="vType_car_3.851351095867581" accel="1.0" decel="5.0" sigma="0.0" length="4.5" maxSpeed="1.069819748852106" /><vType id="vType_car_9.899268408045724" accel="1.0" decel="5.0" sigma="0.0" length="4.5" maxSpeed="2.749796780012701" /><vType id="vType_car_4.709936577477395" accel="1.0" decel="5.0" sigma="0.0" length="4.5" maxSpeed="1.3083157159659429" /><vType id="vType_car_10.90139334661255" accel="1.0" decel="5.0" sigma="0.0" length="4.5" maxSpeed="3.028164818503486" /><vType id="vType_car_36.422383020334166" accel="1.0" decel="5.0" sigma="0.0" length="4.5" maxSpeed="10.11732861675949" /><vType id="vType_car_1.1745773764682628" accel="1.0" decel="5.0" sigma="0.0" length="4.5" maxSpeed="0.32627149346340634" /><vType id="vType_car_4.967006194097327" accel="1.0" decel="5.0" sigma="0.0" length="4.5" maxSpeed="1.3797239428048131" /><vType id="vType_car_3.766995069099671" accel="1.0" decel="5.0" sigma="0.0" length="4.5" maxSpeed="1.046387519194353" /><vType id="vType_car_18.97587825303979" accel="1.0" decel="5.0" sigma="0.0" length="4.5" maxSpeed="5.271077292511053" /><vType id="vType_car_39.396522879245964" accel="1.0" decel="5.0" sigma="0.0" length="4.5" maxSpeed="10.943478577568323" /><vType id="vType_car_39.48693890134539" accel="1.0" decel="5.0" sigma="0.0" length="4.5" maxSpeed="10.968594139262608" /><vType id="vType_car_4.5131640019758095" accel="1.0" decel="5.0" sigma="0.0" length="4.5" maxSpeed="1.2536566672155025" /><vType id="vType_bus_36.889928082412446" accel="1.0" decel="5.0" sigma="0.0" length="13" maxSpeed="10.247202245114568" /><vType id="vType_car_24.06511639091726" accel="1.0" decel="5.0" sigma="0.0" length="4.5" maxSpeed="6.6847545530325725" /><vType id="vType_car_30.16031952159422" accel="1.0" decel="5.0" sigma="0.0" length="4.5" maxSpeed="8.377866533776173" /><vType id="vType_car_12.183162176606137" accel="1.0" decel="5.0" sigma="0.0" length="4.5" maxSpeed="3.384211715723927" /><vType id="vType_car_11.149875692947026" accel="1.0" decel="5.0" sigma="0.0" length="4.5" maxSpeed="3.097187692485285" /><vType id="vType_car_18.86456584367963" accel="1.0" decel="5.0" sigma="0.0" length="4.5" maxSpeed="5.2401571787998975" /><vType id="vType_car_4.94492733156739" accel="1.0" decel="5.0" sigma="0.0" length="4.5" maxSpeed="1.3735909254353862" /><vType id="vType_car_5.213320733415843" accel="1.0" decel="5.0" sigma="0.0" length="4.5" maxSpeed="1.4481446481710676" /><vType id="vType_car_7.474964651361116" accel="1.0" decel="5.0" sigma="0.0" length="4.5" maxSpeed="2.0763790698225324" /><vType id="vType_car_18.866124528605646" accel="1.0" decel="5.0" sigma="0.0" length="4.5" maxSpeed="5.240590146834902" /><vType id="vType_car_50.819987494275495" accel="1.0" decel="5.0" sigma="0.0" length="4.5" maxSpeed="14.116663192854304" /><vType id="vType_car_57.362203163292946" accel="1.0" decel="5.0" sigma="0.0" length="4.5" maxSpeed="15.933945323136928" /><vType id="vType_car_17.796589234343816" accel="1.0" decel="5.0" sigma="0.0" length="4.5" maxSpeed="4.943497009539949" /><vType id="vType_car_11.143019393234315" accel="1.0" decel="5.0" sigma="0.0" length="4.5" maxSpeed="3.09528316478731" /><vType id="vType_car_7.8793045758491935" accel="1.0" decel="5.0" sigma="0.0" length="4.5" maxSpeed="2.188695715513665" /><vType id="vType_car_41.67981173296994" accel="1.0" decel="5.0" sigma="0.0" length="4.5" maxSpeed="11.577725481380538" /><vType id="vType_car_24.032707551254624" accel="1.0" decel="5.0" sigma="0.0" length="4.5" maxSpeed="6.6757520975707285" /><vType id="vType_car_13.739702437591909" accel="1.0" decel="5.0" sigma="0.0" length="4.5" maxSpeed="3.8165840104421966" /><vType id="vType_bus_41.46286163080263" accel="1.0" decel="5.0" sigma="0.0" length="13" maxSpeed="11.51746156411184" /><vType id="vType_car_67.05923574516089" accel="1.0" decel="5.0" sigma="0.0" length="4.5" maxSpeed="18.627565484766915" /><vType id="vType_car_42.69540811699039" accel="1.0" decel="5.0" sigma="0.0" length="4.5" maxSpeed="11.859835588052887" /><vType id="vType_car_3.978794458677551" accel="1.0" decel="5.0" sigma="0.0" length="4.5" maxSpeed="1.1052206829659865" /><vType id="vType_car_41.58109666224363" accel="1.0" decel="5.0" sigma="0.0" length="4.5" maxSpeed="11.550304628401008" /><vType id="vType_car_47.78160447420862" accel="1.0" decel="5.0" sigma="0.0" length="4.5" maxSpeed="13.272667909502394" /><vType id="vType_car_20.473207161148665" accel="1.0" decel="5.0" sigma="0.0" length="4.5" maxSpeed="5.687001989207962" /><vType id="vType_car_4.5720551817229955" accel="1.0" decel="5.0" sigma="0.0" length="4.5" maxSpeed="1.2700153282563875" /><vType id="vType_car_7.616122927597074" accel="1.0" decel="5.0" sigma="0.0" length="4.5" maxSpeed="2.1155897021102983" /><vType id="vType_car_34.21439094329442" accel="1.0" decel="5.0" sigma="0.0" length="4.5" maxSpeed="9.50399748424845" /><vType id="vType_car_20.36680910271155" accel="1.0" decel="5.0" sigma="0.0" length="4.5" maxSpeed="5.65744697297543" /><vType id="vType_car_47.289597273095914" accel="1.0" decel="5.0" sigma="0.0" length="4.5" maxSpeed="13.135999242526642" /><vType id="vType_car_42.81548497156765" accel="1.0" decel="5.0" sigma="0.0" length="4.5" maxSpeed="11.893190269879902" /><vType id="vType_car_27.904558135281555" accel="1.0" decel="5.0" sigma="0.0" length="4.5" maxSpeed="7.751266148689321" /><vType id="vType_car_39.56626971710455" accel="1.0" decel="5.0" sigma="0.0" length="4.5" maxSpeed="10.990630476973484" /><vType id="vType_car_43.01139199701593" accel="1.0" decel="5.0" sigma="0.0" length="4.5" maxSpeed="11.94760888805998" /><vType id="vType_car_41.84799499353901" accel="1.0" decel="5.0" sigma="0.0" length="4.5" maxSpeed="11.624443053760837" /><vType id="vType_car_49.98188239586789" accel="1.0" decel="5.0" sigma="0.0" length="4.5" maxSpeed="13.883856221074414" /><vType id="vType_car_48.618385950389055" accel="1.0" decel="5.0" sigma="0.0" length="4.5" maxSpeed="13.505107208441403" /><vType id="vType_car_48.229929056318" accel="1.0" decel="5.0" sigma="0.0" length="4.5" maxSpeed="13.397202515643889" /><vType id="vType_car_49.86732013526048" accel="1.0" decel="5.0" sigma="0.0" length="4.5" maxSpeed="13.852033370905687" /><vType id="vType_car_4.630495463403366" accel="1.0" decel="5.0" sigma="0.0" length="4.5" maxSpeed="1.2862487398342684" /><vType id="vType_car_48.72102340165998" accel="1.0" decel="5.0" sigma="0.0" length="4.5" maxSpeed="13.533617611572215" /><vType id="vType_car_4.362781137881923" accel="1.0" decel="5.0" sigma="0.0" length="4.5" maxSpeed="1.2118836494116452" /><vType id="vType_car_55.38139066359854" accel="1.0" decel="5.0" sigma="0.0" length="4.5" maxSpeed="15.38371962877737" /><vType id="vType_car_35.47047934837051" accel="1.0" decel="5.0" sigma="0.0" length="4.5" maxSpeed="9.852910930102919" /><vType id="vType_car_84.6053569615308" accel="1.0" decel="5.0" sigma="0.0" length="4.5" maxSpeed="23.501488044869667" /><vType id="vType_car_66.87421491445494" accel="1.0" decel="5.0" sigma="0.0" length="4.5" maxSpeed="18.576170809570815" /><vType id="vType_car_3.9831112130984763" accel="1.0" decel="5.0" sigma="0.0" length="4.5" maxSpeed="1.1064197814162433" /><vType id="vType_car_3.5410669514656936" accel="1.0" decel="5.0" sigma="0.0" length="4.5" maxSpeed="0.9836297087404704" /><vType id="vType_car_35.62056371218244" accel="1.0" decel="5.0" sigma="0.0" length="4.5" maxSpeed="9.894601031161788" /><vType id="vType_car_41.08333071805895" accel="1.0" decel="5.0" sigma="0.0" length="4.5" maxSpeed="11.412036310571931" /><vType id="vType_car_15.4833410453476" accel="1.0" decel="5.0" sigma="0.0" length="4.5" maxSpeed="4.300928068152111" /><vType id="vType_car_10.28782793552455" accel="1.0" decel="5.0" sigma="0.0" length="4.5" maxSpeed="2.8577299820901527" /><vType id="vType_car_6.188904770798086" accel="1.0" decel="5.0" sigma="0.0" length="4.5" maxSpeed="1.7191402141105794" /><vType id="vType_car_53.694819810028555" accel="1.0" decel="5.0" sigma="0.0" length="4.5" maxSpeed="14.91522772500793" /><vType id="vType_car_4.544434354912399" accel="1.0" decel="5.0" sigma="0.0" length="4.5" maxSpeed="1.2623428763645552" /><vType id="vType_car_19.133095587674198" accel="1.0" decel="5.0" sigma="0.0" length="4.5" maxSpeed="5.314748774353943" /><vType id="vType_car_13.300129574866599" accel="1.0" decel="5.0" sigma="0.0" length="4.5" maxSpeed="3.694480437462944" /><vType id="vType_car_15.978743573071233" accel="1.0" decel="5.0" sigma="0.0" length="4.5" maxSpeed="4.438539881408675" /><vType id="vType_car_66.74980515450741" accel="1.0" decel="5.0" sigma="0.0" length="4.5" maxSpeed="18.541612542918724" /><vType id="vType_car_5.1584908852030615" accel="1.0" decel="5.0" sigma="0.0" length="4.5" maxSpeed="1.4329141347786283" /><vType id="vType_car_36.11180491599603" accel="1.0" decel="5.0" sigma="0.0" length="4.5" maxSpeed="10.03105692111001" /><vType id="vType_car_35.335298467816095" accel="1.0" decel="5.0" sigma="0.0" length="4.5" maxSpeed="9.815360685504471" /><route id="route_north_to_east" edges="north_to_center center_to_east" /><route id="route_north_to_south" edges="north_to_center center_to_south" /><route id="route_north_to_west" edges="north_to_center center_to_west" /><route id="route_east_to_west" edges="east_to_center center_to_west" /><route id="route_east_to_south" edges="east_to_center center_to_south" /><route id="route_east_to_north" edges="east_to_center center_to_north" /><route id="route_south_to_west" edges="south_to_center center_to_west" /><route id="route_south_to_north" edges="south_to_center center_to_north" /><route id="route_south_to_east" edges="south_to_center center_to_east" /><route id="route_west_to_south" edges="west_to_center center_to_south" /><route id="route_west_to_north" edges="west_to_center center_to_north" /><route id="route_west_to_east" edges="west_to_center center_to_east" /><vehicle id="veh460" type="vType_car_20.679054093099936" route="route_north_to_south" depart="0.04" /><vehicle id="veh462" type="vType_car_10.888976432274127" route="route_east_to_north" depart="0.04" /><vehicle id="veh470" type="vType_car_14.997717306062922" route="route_west_to_east" depart="0.04" /><vehicle id="veh472" type="vType_car_18.252749359519868" route="route_north_to_west" depart="0.04" /><vehicle id="veh476" type="vType_car_18.404673402006956" route="route_west_to_east" depart="0.04" /><vehicle id="veh486" type="vType_car_19.903171682906613" route="route_west_to_east" depart="0.04" /><vehicle id="veh484" type="vType_car_16.5003038111799" route="route_west_to_east" depart="0.04" /><vehicle id="veh494" type="vType_car_13.921746689230696" route="route_west_to_north" depart="0.04" /><vehicle id="veh489" type="vType_car_12.47357655275488" route="route_north_to_east" depart="0.04" /><vehicle id="veh490" type="vType_car_13.218284081617634" route="route_north_to_east" depart="0.04" /><vehicle id="veh463" type="vType_car_18.80855564839889" route="route_north_to_south" depart="0.04" /><vehicle id="veh509" type="vType_car_27.386023788541532" route="route_south_to_north" depart="0.04" /><vehicle id="veh513" type="vType_car_43.94288668147423" route="route_south_to_west" depart="0.04" /><vehicle id="veh508" type="vType_car_18.10428187186567" route="route_south_to_east" depart="0.04" /><vehicle id="veh520" type="vType_car_36.422383020334166" route="route_south_to_north" depart="1.43" /><vehicle id="veh527" type="vType_car_39.48693890134539" route="route_south_to_north" depart="8.05" /><vehicle id="veh533" type="vType_car_24.06511639091726" route="route_north_to_south" depart="9.26" /><vehicle id="veh534" type="vType_car_30.16031952159422" route="route_north_to_south" depart="9.62" /><vehicle id="veh536" type="vType_car_12.183162176606137" route="route_north_to_east" depart="10.16" /><vehicle id="veh545" type="vType_car_18.866124528605646" route="route_north_to_west" depart="15.05" /><vehicle id="veh548" type="vType_car_17.796589234343816" route="route_west_to_north" depart="16.27" /><vehicle id="veh555" type="vType_car_13.739702437591909" route="route_north_to_east" depart="16.38" /><vehicle id="veh558" type="vType_bus_41.46286163080263" route="route_south_to_north" depart="17.20" /><vehicle id="veh560" type="vType_car_42.69540811699039" route="route_south_to_north" depart="18.09" /><vehicle id="veh566" type="vType_car_41.58109666224363" route="route_south_to_west" depart="23.56" /><vehicle id="veh567" type="vType_car_47.78160447420862" route="route_south_to_north" depart="27.82" /><vehicle id="veh568" type="vType_car_20.473207161148665" route="route_west_to_north" depart="29.82" /><vehicle id="veh573" type="vType_car_34.21439094329442" route="route_west_to_east" depart="35.40" /><vehicle id="veh576" type="vType_car_20.36680910271155" route="route_north_to_west" depart="36.54" /><vehicle id="veh578" type="vType_car_47.289597273095914" route="route_west_to_east" depart="37.01" /><vehicle id="veh580" type="vType_car_42.81548497156765" route="route_west_to_east" depart="38.30" /><vehicle id="veh583" type="vType_car_27.904558135281555" route="route_west_to_north" depart="38.83" /><vehicle id="veh584" type="vType_car_39.56626971710455" route="route_west_to_east" depart="39.01" /><vehicle id="veh585" type="vType_car_43.01139199701593" route="route_west_to_east" depart="42.37" /><vehicle id="veh587" type="vType_car_41.84799499353901" route="route_west_to_east" depart="42.91" /><vehicle id="veh590" type="vType_car_49.98188239586789" route="route_west_to_east" depart="44.30" /><vehicle id="veh591" type="vType_car_48.618385950389055" route="route_west_to_east" depart="44.45" /><vehicle id="veh593" type="vType_car_48.229929056318" route="route_west_to_east" depart="45.48" /><vehicle id="veh596" type="vType_car_48.72102340165998" route="route_west_to_east" depart="48.02" /><vehicle id="veh609" type="vType_car_55.38139066359854" route="route_west_to_east" depart="50.74" /><vehicle id="veh615" type="vType_car_35.47047934837051" route="route_west_to_east" depart="52.10" /><vehicle id="veh636" type="vType_car_15.4833410453476" route="route_east_to_north" depart="56.03" /><vehicle id="veh639" type="vType_car_53.694819810028555" route="route_east_to_west" depart="56.03" /></routes>