<net xmlns:xsi="http://www.w3.org/2001/XMLSchema-instance" version="1.20" junctionCornerDetail="5" limitTurnSpeed="5.50" xsi:noNamespaceSchemaLocation="http://sumo.dlr.de/xsd/net_file.xsd">

    <location netOffset="-561002.52,-5274619.46" convBoundary="0.00,0.00,285.07,103.28" origBoundary="-122.188131,47.622105,-122.184329,47.623017" projParameter="+proj=utm +zone=10 +ellps=WGS84 +datum=WGS84 +units=m +no_defs" />

    <type id="highway.secondary" priority="11" numLanes="1" speed="27.78" disallow="tram rail_urban rail rail_electric rail_fast ship container cable_car subway aircraft wheelchair scooter drone" oneway="0" />

    <edge id=":2508558403_0" function="internal">
        <lane id=":2508558403_0_0" index="0" disallow="tram rail_urban rail rail_electric rail_fast ship container cable_car subway aircraft wheelchair scooter drone" speed="13.41" length="7.97" shape="234.06,84.93 231.67,85.38 230.09,86.04 228.51,86.65 226.11,86.95" />
        <lane id=":2508558403_0_1" index="1" disallow="tram rail_urban rail rail_electric rail_fast ship container cable_car subway aircraft wheelchair scooter drone" speed="13.41" length="7.97" shape="233.79,81.74 231.46,82.19 229.93,82.84 228.39,83.45 226.05,83.75" />
        <lane id=":2508558403_0_2" index="2" disallow="tram rail_urban rail rail_electric rail_fast ship container cable_car subway aircraft wheelchair scooter drone" speed="13.41" length="7.97" shape="233.52,78.55 231.25,78.99 229.76,79.65 228.26,80.25 225.99,80.55" />
        <lane id=":2508558403_0_3" index="3" disallow="tram rail_urban rail rail_electric rail_fast ship container cable_car subway aircraft wheelchair scooter drone" speed="13.41" length="7.97" shape="233.52,78.55 231.26,78.49 229.73,78.05 228.20,77.55 225.93,77.35" />
    </edge>
    <edge id=":3825046929_0" function="internal">
        <lane id=":3825046929_0_0" index="0" disallow="tram rail_urban rail rail_electric rail_fast ship container cable_car subway aircraft wheelchair scooter drone" speed="3.65" length="4.67" shape="182.78,103.31 181.96,104.50 181.15,104.88 180.36,104.46 179.58,103.25" />
    </edge>
    <edge id=":4272160207_0" function="internal">
        <lane id=":4272160207_0_0" index="0" disallow="tram rail_urban rail rail_electric rail_fast ship container cable_car subway aircraft wheelchair scooter drone" speed="3.65" length="4.67" shape="180.98,20.38 181.81,19.20 182.61,18.82 183.41,19.24 184.18,20.46" />
    </edge>
    <edge id=":cluster_53190763_5896114911_0" function="internal">
        <lane id=":cluster_53190763_5896114911_0_0" index="0" disallow="tram rail_urban rail rail_electric rail_fast ship container cable_car subway aircraft wheelchair scooter drone" speed="7.31" length="11.66" shape="195.17,87.10 191.30,87.36 188.51,88.33 186.82,89.99 186.21,92.36" />
    </edge>
    <edge id=":cluster_53190763_5896114911_1" function="internal">
        <lane id=":cluster_53190763_5896114911_1_0" index="0" disallow="tram rail_urban rail rail_electric rail_fast ship container cable_car subway aircraft wheelchair scooter drone" speed="13.41" length="30.21" shape="195.23,83.90 185.50,83.58 178.13,83.05 171.76,82.26 165.01,81.19" />
        <lane id=":cluster_53190763_5896114911_1_1" index="1" disallow="tram rail_urban rail rail_electric rail_fast ship container cable_car subway aircraft wheelchair scooter drone" speed="13.41" length="30.21" shape="195.28,80.70 185.66,80.38 178.40,79.86 172.10,79.08 165.38,78.01" />
    </edge>
    <edge id=":cluster_53190763_5896114911_3" function="internal">
        <lane id=":cluster_53190763_5896114911_3_0" index="0" disallow="tram rail_urban rail rail_electric rail_fast ship container cable_car subway aircraft wheelchair scooter drone" speed="10.29" length="8.06" shape="195.33,77.50 188.81,76.47 187.56,75.72" />
    </edge>
    <edge id=":cluster_53190763_5896114911_4" function="internal">
        <lane id=":cluster_53190763_5896114911_4_0" index="0" disallow="tram rail_urban rail rail_electric rail_fast ship container cable_car subway aircraft wheelchair scooter drone" speed="3.96" length="2.51" shape="195.33,77.50 193.84,76.47 193.53,75.84" />
    </edge>
    <edge id=":cluster_53190763_5896114911_18" function="internal">
        <lane id=":cluster_53190763_5896114911_18_0" index="0" disallow="tram rail_urban rail rail_electric rail_fast ship container cable_car subway aircraft wheelchair scooter drone" speed="10.29" length="15.72" shape="187.56,75.72 184.15,73.67 181.35,69.11 180.43,62.79" />
    </edge>
    <edge id=":cluster_53190763_5896114911_19" function="internal">
        <lane id=":cluster_53190763_5896114911_19_0" index="0" disallow="tram rail_urban rail rail_electric rail_fast ship container cable_car subway aircraft wheelchair scooter drone" speed="3.96" length="3.36" shape="193.53,75.84 193.35,75.46 193.87,74.46 195.39,73.48" />
    </edge>
    <edge id=":cluster_53190763_5896114911_5" function="internal">
        <lane id=":cluster_53190763_5896114911_5_0" index="0" disallow="tram rail_urban rail rail_electric rail_fast ship container cable_car subway aircraft wheelchair scooter drone" speed="6.89" length="10.12" shape="190.03,63.16 190.36,66.24 191.38,68.46 193.07,69.80 195.45,70.28" />
    </edge>
    <edge id=":cluster_53190763_5896114911_6" function="internal">
        <lane id=":cluster_53190763_5896114911_6_0" index="0" disallow="tram rail_urban rail rail_electric rail_fast ship container cable_car subway aircraft wheelchair scooter drone" speed="13.41" length="29.53" shape="190.03,63.16 189.46,72.53 188.19,79.53 186.90,85.65 186.21,92.36" />
        <lane id=":cluster_53190763_5896114911_6_1" index="1" disallow="tram rail_urban rail rail_electric rail_fast ship container cable_car subway aircraft wheelchair scooter drone" speed="13.41" length="29.53" shape="186.83,63.04 186.26,72.43 185.00,79.45 183.70,85.59 183.01,92.30" />
    </edge>
    <edge id=":cluster_53190763_5896114911_8" function="internal">
        <lane id=":cluster_53190763_5896114911_8_0" index="0" disallow="tram rail_urban rail rail_electric rail_fast ship container cable_car subway aircraft wheelchair scooter drone" speed="10.46" length="8.34" shape="183.63,62.91 182.48,70.65 182.20,71.08" />
    </edge>
    <edge id=":cluster_53190763_5896114911_20" function="internal">
        <lane id=":cluster_53190763_5896114911_20_0" index="0" disallow="tram rail_urban rail rail_electric rail_fast ship container cable_car subway aircraft wheelchair scooter drone" speed="10.46" length="19.81" shape="182.20,71.08 179.06,75.75 173.36,78.20 165.38,78.01" />
    </edge>
    <edge id=":cluster_53190763_5896114911_9" function="internal">
        <lane id=":cluster_53190763_5896114911_9_0" index="0" disallow="tram rail_urban rail rail_electric rail_fast ship container cable_car subway aircraft wheelchair scooter drone" speed="7.51" length="13.46" shape="166.57,67.66 171.23,67.82 174.56,67.04 176.56,65.32 177.23,62.66" />
    </edge>
    <edge id=":cluster_53190763_5896114911_10" function="internal">
        <lane id=":cluster_53190763_5896114911_10_0" index="0" disallow="tram rail_urban rail rail_electric rail_fast ship container cable_car subway aircraft wheelchair scooter drone" speed="13.41" length="29.17" shape="166.57,67.66 175.75,68.76 182.66,69.54 188.74,70.04 195.45,70.28" />
        <lane id=":cluster_53190763_5896114911_10_1" index="1" disallow="tram rail_urban rail rail_electric rail_fast ship container cable_car subway aircraft wheelchair scooter drone" speed="13.41" length="29.17" shape="166.21,70.84 175.50,71.95 182.51,72.74 188.66,73.24 195.39,73.48" />
    </edge>
    <edge id=":cluster_53190763_5896114911_12" function="internal">
        <lane id=":cluster_53190763_5896114911_12_0" index="0" disallow="tram rail_urban rail rail_electric rail_fast ship container cable_car subway aircraft wheelchair scooter drone" speed="11.46" length="9.50" shape="165.84,74.02 173.48,75.94 174.82,76.85" />
    </edge>
    <edge id=":cluster_53190763_5896114911_13" function="internal">
        <lane id=":cluster_53190763_5896114911_13_0" index="0" disallow="tram rail_urban rail rail_electric rail_fast ship container cable_car subway aircraft wheelchair scooter drone" speed="3.97" length="2.53" shape="165.84,74.02 167.22,75.19 167.47,75.87" />
    </edge>
    <edge id=":cluster_53190763_5896114911_21" function="internal">
        <lane id=":cluster_53190763_5896114911_21_0" index="0" disallow="tram rail_urban rail rail_electric rail_fast ship container cable_car subway aircraft wheelchair scooter drone" speed="11.46" length="18.52" shape="174.82,76.85 178.89,79.62 182.07,85.08 183.01,92.30" />
    </edge>
    <edge id=":cluster_53190763_5896114911_22" function="internal">
        <lane id=":cluster_53190763_5896114911_22_0" index="0" disallow="tram rail_urban rail rail_electric rail_fast ship container cable_car subway aircraft wheelchair scooter drone" speed="3.97" length="3.34" shape="167.47,75.87 167.60,76.25 166.99,77.19 165.38,78.01" />
    </edge>
    <edge id=":cluster_53190763_5896114911_14" function="internal">
        <lane id=":cluster_53190763_5896114911_14_0" index="0" disallow="tram rail_urban rail rail_electric rail_fast ship container cable_car subway aircraft wheelchair scooter drone" speed="8.14" length="13.11" shape="170.22,92.06 169.97,87.64 169.02,84.36 167.37,82.21 165.01,81.19" />
    </edge>
    <edge id=":cluster_53190763_5896114911_15" function="internal">
        <lane id=":cluster_53190763_5896114911_15_0" index="0" disallow="tram rail_urban rail rail_electric rail_fast ship container cable_car subway aircraft wheelchair scooter drone" speed="13.41" length="29.71" shape="173.42,92.12 174.14,82.66 175.44,75.57 176.67,69.40 177.23,62.66" />
        <lane id=":cluster_53190763_5896114911_15_1" index="1" disallow="tram rail_urban rail rail_electric rail_fast ship container cable_car subway aircraft wheelchair scooter drone" speed="13.41" length="29.71" shape="176.61,92.18 177.34,82.74 178.63,75.68 179.87,69.52 180.43,62.79" />
    </edge>
    <edge id=":cluster_53190763_5896114911_17" function="internal">
        <lane id=":cluster_53190763_5896114911_17_0" index="0" disallow="tram rail_urban rail rail_electric rail_fast ship container cable_car subway aircraft wheelchair scooter drone" speed="11.01" length="10.31" shape="179.81,92.24 180.94,83.94 181.81,82.22" />
    </edge>
    <edge id=":cluster_53190763_5896114911_23" function="internal">
        <lane id=":cluster_53190763_5896114911_23_0" index="0" disallow="tram rail_urban rail rail_electric rail_fast ship container cable_car subway aircraft wheelchair scooter drone" speed="11.01" length="17.37" shape="181.81,82.22 183.91,78.05 188.73,74.56 195.39,73.48" />
    </edge>

    <edge id="-428067750" from="cluster_53190763_5896114911" to="4272160207" name="116th Avenue Northeast" priority="11" type="highway.secondary" shape="181.75,71.66 182.03,64.49 182.04,44.56 182.58,20.42">
        <lane id="-428067750_0" index="0" disallow="tram rail_urban rail rail_electric rail_fast ship container cable_car subway aircraft wheelchair scooter drone" speed="13.41" length="42.38" shape="177.23,62.66 177.24,44.50 177.78,20.31">
            <param key="origId" value="428067750" />
        </lane>
        <lane id="-428067750_1" index="1" disallow="tram rail_urban rail rail_electric rail_fast ship container cable_car subway aircraft wheelchair scooter drone" speed="13.41" length="42.38" shape="180.43,62.79 180.44,44.54 180.98,20.38">
            <param key="origId" value="428067750" />
        </lane>
        <param key="origFrom" value="5896114911" />
    </edge>
    <edge id="-428067754" from="3825046929" to="cluster_53190763_5896114911" name="116th Avenue Northeast" priority="11" type="highway.secondary" shape="181.18,103.28 181.45,90.38 181.62,81.62">
        <lane id="-428067754_0" index="0" disallow="tram rail_urban rail rail_electric rail_fast ship container cable_car subway aircraft wheelchair scooter drone" speed="13.41" length="11.00" shape="169.99,103.04 170.22,92.06">
            <param key="origId" value="428067754" />
        </lane>
        <lane id="-428067754_1" index="1" disallow="tram rail_urban rail rail_electric rail_fast ship container cable_car subway aircraft wheelchair scooter drone" speed="13.41" length="11.00" shape="173.18,103.11 173.42,92.12">
            <param key="origId" value="428067754" />
        </lane>
        <lane id="-428067754_2" index="2" disallow="tram rail_urban rail rail_electric rail_fast ship container cable_car subway aircraft wheelchair scooter drone" speed="13.41" length="11.00" shape="176.38,103.18 176.61,92.18">
            <param key="origId" value="428067754" />
        </lane>
        <lane id="-428067754_3" index="3" disallow="tram rail_urban rail rail_electric rail_fast ship container cable_car subway aircraft wheelchair scooter drone" speed="13.41" length="11.00" shape="179.58,103.25 179.81,92.24">
            <param key="origId" value="428067754" />
        </lane>
        <param key="origTo" value="53190763" />
    </edge>
    <edge id="160183267" from="cluster_53190763_5896114911" to="53226634" name="Northeast 12th Street" priority="11" type="highway.secondary" spreadType="center" shape="181.62,81.62 168.20,80.10 156.85,78.22 134.23,73.00 112.78,66.92 92.20,59.96 73.50,51.25 49.98,37.15 0.00,0.00">
        <lane id="160183267_0" index="0" disallow="tram rail_urban rail rail_electric rail_fast ship container cable_car subway aircraft wheelchair scooter drone" speed="13.41" length="186.02" shape="165.01,81.19 156.54,79.79 133.84,74.55 112.31,68.44 91.60,61.45 72.75,52.67 49.09,38.48 -0.95,1.28">
            <param key="origId" value="160183267" />
        </lane>
        <lane id="160183267_1" index="1" disallow="tram rail_urban rail rail_electric rail_fast ship container cable_car subway aircraft wheelchair scooter drone" speed="13.41" length="186.02" shape="165.38,78.01 157.16,76.64 134.63,71.45 113.26,65.39 92.79,58.48 74.25,49.84 50.87,35.82 0.95,-1.28">
            <param key="origId" value="160183267" />
        </lane>
        <param key="origFrom" value="53190763" />
    </edge>
    <edge id="378376405" from="4272160206" to="cluster_53190763_5896114911" name="Northeast 12th Street" priority="11" type="highway.secondary" spreadType="center" shape="16.73,1.34 49.92,26.89 67.73,38.46 103.50,54.77 136.88,64.80 159.14,70.01 168.50,71.11 181.75,71.66">
        <lane id="378376405_0" index="0" disallow="tram rail_urban rail rail_electric rail_fast ship container cable_car subway aircraft wheelchair scooter drone" speed="13.41" length="167.27" shape="18.68,-1.19 51.77,24.27 69.28,35.64 104.63,51.77 137.70,61.71 159.69,66.86 166.57,67.66">
            <param key="origId" value="378376405" />
        </lane>
        <lane id="378376405_1" index="1" disallow="tram rail_urban rail rail_electric rail_fast ship container cable_car subway aircraft wheelchair scooter drone" speed="13.41" length="167.27" shape="16.73,1.34 49.92,26.89 67.73,38.46 103.50,54.77 136.88,64.80 159.14,70.01 166.21,70.84">
            <param key="origId" value="378376405" />
        </lane>
        <lane id="378376405_2" index="2" disallow="tram rail_urban rail rail_electric rail_fast ship container cable_car subway aircraft wheelchair scooter drone" speed="13.41" length="167.27" shape="14.78,3.88 48.07,29.50 66.19,41.27 102.37,57.77 136.05,67.89 158.59,73.17 165.84,74.02">
            <param key="origId" value="378376405" />
        </lane>
        <param key="origTo" value="5896114911" />
    </edge>
    <edge id="378376408" from="cluster_53190763_5896114911" to="6807545012" name="Northeast 12th Street" priority="11" type="highway.secondary" spreadType="center" shape="181.75,71.66 192.39,71.83 203.94,72.02 218.65,71.86 236.76,70.58 251.92,68.85 268.67,66.14 279.20,64.06 285.07,62.93">
        <lane id="378376408_0" index="0" disallow="tram rail_urban rail rail_electric rail_fast ship container cable_car subway aircraft wheelchair scooter drone" speed="13.41" length="90.32" shape="195.45,70.28 203.95,70.42 218.58,70.26 236.61,68.99 251.70,67.27 268.39,64.57 278.89,62.49 284.76,61.36">
            <param key="origId" value="378376408" />
        </lane>
        <lane id="378376408_1" index="1" disallow="tram rail_urban rail rail_electric rail_fast ship container cable_car subway aircraft wheelchair scooter drone" speed="13.41" length="90.32" shape="195.39,73.48 203.94,73.62 218.71,73.46 236.90,72.18 252.14,70.44 268.96,67.72 279.51,65.63 285.37,64.51">
            <param key="origId" value="378376408" />
        </lane>
        <param key="origFrom" value="5896114911" />
    </edge>
    <edge id="428067750" from="4272160207" to="cluster_53190763_5896114911" name="116th Avenue Northeast" priority="11" type="highway.secondary" shape="182.58,20.42 182.04,44.56 182.03,64.49 181.75,71.66">
        <lane id="428067750_0" index="0" disallow="tram rail_urban rail rail_electric rail_fast ship container cable_car subway aircraft wheelchair scooter drone" speed="13.41" length="42.51" shape="190.58,20.60 190.04,44.65 190.03,63.16">
            <param key="origId" value="428067750" />
        </lane>
        <lane id="428067750_1" index="1" disallow="tram rail_urban rail rail_electric rail_fast ship container cable_car subway aircraft wheelchair scooter drone" speed="13.41" length="42.51" shape="187.38,20.53 186.84,44.61 186.83,63.04">
            <param key="origId" value="428067750" />
        </lane>
        <lane id="428067750_2" index="2" disallow="tram rail_urban rail rail_electric rail_fast ship container cable_car subway aircraft wheelchair scooter drone" speed="13.41" length="42.51" shape="184.18,20.46 183.64,44.58 183.63,62.91">
            <param key="origId" value="428067750" />
        </lane>
        <param key="origTo" value="5896114911" />
    </edge>
    <edge id="428067754" from="cluster_53190763_5896114911" to="3825046929" name="116th Avenue Northeast" priority="11" type="highway.secondary" shape="181.62,81.62 181.45,90.38 181.18,103.28">
        <lane id="428067754_0" index="0" disallow="tram rail_urban rail rail_electric rail_fast ship container cable_car subway aircraft wheelchair scooter drone" speed="13.41" length="11.02" shape="186.21,92.36 185.98,103.38">
            <param key="origId" value="428067754" />
        </lane>
        <lane id="428067754_1" index="1" disallow="tram rail_urban rail rail_electric rail_fast ship container cable_car subway aircraft wheelchair scooter drone" speed="13.41" length="11.02" shape="183.01,92.30 182.78,103.31">
            <param key="origId" value="428067754" />
        </lane>
        <param key="origFrom" value="53190763" />
    </edge>
    <edge id="428067759" from="2508558403" to="cluster_53190763_5896114911" name="Northeast 12th Street" priority="11" type="highway.secondary" spreadType="center" shape="229.91,82.07 213.93,82.38 197.93,82.36 192.43,82.25 181.62,81.62">
        <lane id="428067759_0" index="0" disallow="tram rail_urban rail rail_electric rail_fast ship container cable_car subway aircraft wheelchair scooter drone" speed="13.41" length="30.77" shape="226.11,86.95 213.97,87.18 197.87,87.16 195.17,87.10">
            <param key="origId" value="428067759" />
        </lane>
        <lane id="428067759_1" index="1" disallow="tram rail_urban rail rail_electric rail_fast ship container cable_car subway aircraft wheelchair scooter drone" speed="13.41" length="30.77" shape="226.05,83.75 213.94,83.98 197.91,83.96 195.23,83.90">
            <param key="origId" value="428067759" />
        </lane>
        <lane id="428067759_2" index="2" disallow="tram rail_urban rail rail_electric rail_fast ship container cable_car subway aircraft wheelchair scooter drone" speed="13.41" length="30.77" shape="225.99,80.55 213.91,80.78 197.94,80.76 195.28,80.70">
            <param key="origId" value="428067759" />
        </lane>
        <lane id="428067759_3" index="3" disallow="tram rail_urban rail rail_electric rail_fast ship container cable_car subway aircraft wheelchair scooter drone" speed="13.41" length="30.77" shape="225.93,77.35 213.88,77.58 197.98,77.56 195.33,77.50">
            <param key="origId" value="428067759" />
        </lane>
        <param key="origTo" value="53190763" />
    </edge>
    <edge id="513238757" from="5017548659" to="2508558403" name="Northeast 12th Street" priority="11" type="highway.secondary" spreadType="center" shape="258.32,79.26 247.50,80.58 229.91,82.07">
        <lane id="513238757_0" index="0" disallow="tram rail_urban rail rail_electric rail_fast ship container cable_car subway aircraft wheelchair scooter drone" speed="13.41" length="24.66" shape="258.71,82.44 247.83,83.76 234.06,84.93">
            <param key="origId" value="513238757" />
        </lane>
        <lane id="513238757_1" index="1" disallow="tram rail_urban rail rail_electric rail_fast ship container cable_car subway aircraft wheelchair scooter drone" speed="13.41" length="24.66" shape="258.32,79.26 247.50,80.58 233.79,81.74">
            <param key="origId" value="513238757" />
        </lane>
        <lane id="513238757_2" index="2" disallow="tram rail_urban rail rail_electric rail_fast ship container cable_car subway aircraft wheelchair scooter drone" speed="13.41" length="24.66" shape="257.94,76.08 247.17,77.40 233.52,78.55">
            <param key="origId" value="513238757" />
        </lane>
    </edge>

    <tlLogic id="cluster_53190763_5896114911" type="actuated" programID="0" offset="0">
        <phase duration="33" state="GGGggrrrrGGGggrrrr" minDur="5" maxDur="50" />
        <phase duration="3" state="yyyggrrrryyyggrrrr" />
        <phase duration="6" state="rrrGGrrrrrrrGGrrrr" minDur="5" maxDur="50" />
        <phase duration="3" state="rrryyrrrrrrryyrrrr" />
        <phase duration="33" state="rrrrrGGGgrrrrrGGGg" minDur="5" maxDur="50" />
        <phase duration="3" state="rrrrryyygrrrrryyyg" />
        <phase duration="6" state="rrrrrrrrGrrrrrrrrG" minDur="5" maxDur="50" />
        <phase duration="3" state="rrrrrrrryrrrrrrrry" />
    </tlLogic>

    <junction id="2508558403" type="priority" x="229.91" y="82.07" incLanes="513238757_0 513238757_1 513238757_2" intLanes=":2508558403_0_0 :2508558403_0_1 :2508558403_0_2 :2508558403_0_3" shape="234.20,86.53 233.38,76.96 230.61,76.77 229.64,76.45 228.68,76.10 227.50,75.84 225.90,75.75 226.14,88.55 229.16,88.06 230.18,87.64 231.19,87.19 232.45,86.79">
        <request index="0" response="0000" foes="0000" cont="0" />
        <request index="1" response="0000" foes="0000" cont="0" />
        <request index="2" response="0000" foes="0000" cont="0" />
        <request index="3" response="0000" foes="0000" cont="0" />
    </junction>
    <junction id="3825046929" type="priority" x="181.18" y="103.28" incLanes="428067754_0 428067754_1" intLanes=":3825046929_0_0" shape="181.18,103.28 187.58,103.41 181.18,103.28">
        <request index="0" response="0" foes="0" cont="0" />
    </junction>
    <junction id="4272160206" type="dead_end" x="16.73" y="1.34" incLanes="" intLanes="" shape="13.80,5.15 19.66,-2.46" />
    <junction id="4272160207" type="priority" x="182.58" y="20.42" incLanes="-428067750_0 -428067750_1" intLanes=":4272160207_0_0" shape="182.58,20.42 176.18,20.28 182.58,20.42">
        <request index="0" response="0" foes="0" cont="0" />
    </junction>
    <junction id="5017548659" type="dead_end" x="258.32" y="79.26" incLanes="" intLanes="" shape="257.74,74.49 258.90,84.02" />
    <junction id="53226634" type="dead_end" x="0.00" y="0.00" incLanes="160183267_0 160183267_1" intLanes="" shape="-1.91,2.57 1.91,-2.57" />
    <junction id="6807545012" type="dead_end" x="285.07" y="62.93" incLanes="378376408_0 378376408_1" intLanes="" shape="284.46,59.79 285.67,66.08" />
    <junction id="cluster_53190763_5896114911" type="traffic_light" x="181.68" y="76.64" incLanes="428067759_0 428067759_1 428067759_2 428067759_3 428067750_0 428067750_1 428067750_2 378376405_0 378376405_1 378376405_2 -428067754_0 -428067754_1 -428067754_2 -428067754_3" intLanes=":cluster_53190763_5896114911_0_0 :cluster_53190763_5896114911_1_0 :cluster_53190763_5896114911_1_1 :cluster_53190763_5896114911_18_0 :cluster_53190763_5896114911_19_0 :cluster_53190763_5896114911_5_0 :cluster_53190763_5896114911_6_0 :cluster_53190763_5896114911_6_1 :cluster_53190763_5896114911_20_0 :cluster_53190763_5896114911_9_0 :cluster_53190763_5896114911_10_0 :cluster_53190763_5896114911_10_1 :cluster_53190763_5896114911_21_0 :cluster_53190763_5896114911_22_0 :cluster_53190763_5896114911_14_0 :cluster_53190763_5896114911_15_0 :cluster_53190763_5896114911_15_1 :cluster_53190763_5896114911_23_0" shape="195.15,88.70 195.47,68.68 193.33,68.05 192.59,67.28 192.05,66.23 191.73,64.87 191.63,63.22 175.63,62.60 174.64,64.99 173.41,65.73 171.68,66.15 169.47,66.27 166.76,66.08 164.83,82.79 167.01,84.11 167.76,85.43 168.28,87.19 168.56,89.39 168.62,92.03 187.81,92.39 188.66,90.28 189.69,89.55 191.11,89.05 192.93,88.76">
        <request index="0" response="000000000000000000" foes="000000000011000000" cont="0" />
        <request index="1" response="100000000100000000" foes="111111000111000000" cont="0" />
        <request index="2" response="100000000100000000" foes="111111000111000000" cont="0" />
        <request index="3" response="100000110100000000" foes="111000110111000000" cont="1" />
        <request index="4" response="100000110000000000" foes="100000110000000000" cont="1" />
        <request index="5" response="000000110000000000" foes="000000110000000000" cont="0" />
        <request index="6" response="000001110000001111" foes="100001110000001111" cont="0" />
        <request index="7" response="000001110000001111" foes="100001110000001111" cont="0" />
        <request index="8" response="011001110000001110" foes="011011110000001110" cont="1" />
        <request index="9" response="000000000000000000" foes="011000000000000000" cont="0" />
        <request index="10" response="100000000100000000" foes="111000000111111000" cont="0" />
        <request index="11" response="100000000100000000" foes="111000000111111000" cont="0" />
        <request index="12" response="100000000100000110" foes="111000000111000110" cont="1" />
        <request index="13" response="000000000100000110" foes="000000000100000110" cont="1" />
        <request index="14" response="000000000000000110" foes="000000000000000110" cont="0" />
        <request index="15" response="000001111000001110" foes="000001111100001110" cont="0" />
        <request index="16" response="000001111000001110" foes="000001111100001110" cont="0" />
        <request index="17" response="000001110011001110" foes="000001110011011110" cont="1" />
        <param key="origEdgeIds" value="-624380954 624380954" />
        <param key="origId" value="53190763 5896114911" />
    </junction>

    <junction id=":cluster_53190763_5896114911_18_0" type="internal" x="187.56" y="75.72" incLanes=":cluster_53190763_5896114911_3_0 378376405_0 378376405_1" intLanes=":cluster_53190763_5896114911_6_0 :cluster_53190763_5896114911_6_1 :cluster_53190763_5896114911_8_0 :cluster_53190763_5896114911_9_0 :cluster_53190763_5896114911_10_0 :cluster_53190763_5896114911_10_1 :cluster_53190763_5896114911_15_0 :cluster_53190763_5896114911_15_1 :cluster_53190763_5896114911_17_0" />
    <junction id=":cluster_53190763_5896114911_19_0" type="internal" x="193.53" y="75.84" incLanes=":cluster_53190763_5896114911_4_0 -428067754_3 378376405_0 378376405_1 428067750_0" intLanes=":cluster_53190763_5896114911_5_0 :cluster_53190763_5896114911_10_0 :cluster_53190763_5896114911_10_1 :cluster_53190763_5896114911_17_0" />
    <junction id=":cluster_53190763_5896114911_20_0" type="internal" x="182.20" y="71.08" incLanes=":cluster_53190763_5896114911_8_0 -428067754_0 -428067754_1 -428067754_2" intLanes=":cluster_53190763_5896114911_1_0 :cluster_53190763_5896114911_1_1 :cluster_53190763_5896114911_3_0 :cluster_53190763_5896114911_10_0 :cluster_53190763_5896114911_10_1 :cluster_53190763_5896114911_12_0 :cluster_53190763_5896114911_13_0 :cluster_53190763_5896114911_14_0 :cluster_53190763_5896114911_15_0 :cluster_53190763_5896114911_15_1" />
    <junction id=":cluster_53190763_5896114911_21_0" type="internal" x="174.82" y="76.85" incLanes=":cluster_53190763_5896114911_12_0 428067759_0 428067759_1 428067759_2" intLanes=":cluster_53190763_5896114911_0_0 :cluster_53190763_5896114911_1_0 :cluster_53190763_5896114911_1_1 :cluster_53190763_5896114911_6_0 :cluster_53190763_5896114911_6_1 :cluster_53190763_5896114911_8_0 :cluster_53190763_5896114911_15_0 :cluster_53190763_5896114911_15_1 :cluster_53190763_5896114911_17_0" />
    <junction id=":cluster_53190763_5896114911_22_0" type="internal" x="167.47" y="75.87" incLanes=":cluster_53190763_5896114911_13_0 -428067754_0 428067750_2 428067759_1 428067759_2" intLanes=":cluster_53190763_5896114911_1_0 :cluster_53190763_5896114911_1_1 :cluster_53190763_5896114911_8_0 :cluster_53190763_5896114911_14_0" />
    <junction id=":cluster_53190763_5896114911_23_0" type="internal" x="181.81" y="82.22" incLanes=":cluster_53190763_5896114911_17_0 428067750_0 428067750_1" intLanes=":cluster_53190763_5896114911_1_0 :cluster_53190763_5896114911_1_1 :cluster_53190763_5896114911_3_0 :cluster_53190763_5896114911_4_0 :cluster_53190763_5896114911_5_0 :cluster_53190763_5896114911_6_0 :cluster_53190763_5896114911_6_1 :cluster_53190763_5896114911_10_0 :cluster_53190763_5896114911_10_1 :cluster_53190763_5896114911_12_0" />

    <connection from="-428067750" to="428067750" fromLane="1" toLane="2" via=":4272160207_0_0" dir="t" state="M" />
    <connection from="-428067754" to="160183267" fromLane="0" toLane="0" via=":cluster_53190763_5896114911_14_0" tl="cluster_53190763_5896114911" linkIndex="14" dir="r" state="o" />