<?xml version='1.0' encoding='utf-8'?>
<routes><vType id="vType_car_9.652432630651234" accel="1.0" decel="5.0" sigma="0.0" length="4.5" maxSpeed="2.681231286292009" /><vType id="vType_car_62.21305145946898" accel="1.0" decel="5.0" sigma="0.0" length="4.5" maxSpeed="17.281403183185827" /><vType id="vType_car_55.49230466579225" accel="1.0" decel="5.0" sigma="0.0" length="4.5" maxSpeed="15.41452907383118" /><vType id="vType_car_5.08472302418877" accel="1.0" decel="5.0" sigma="0.0" length="4.5" maxSpeed="1.4124230622746585" /><vType id="vType_car_9.331584942831906" accel="1.0" decel="5.0" sigma="0.0" length="4.5" maxSpeed="2.5921069285644185" /><vType id="vType_car_8.782069069846889" accel="1.0" decel="5.0" sigma="0.0" length="4.5" maxSpeed="2.439463630513025" /><vType id="vType_car_12.014116950350221" accel="1.0" decel="5.0" sigma="0.0" length="4.5" maxSpeed="3.337254708430617" /><vType id="vType_car_8.850321927368668" accel="1.0" decel="5.0" sigma="0.0" length="4.5" maxSpeed="2.4584227576024076" /><vType id="vType_car_13.758110858036343" accel="1.0" decel="5.0" sigma="0.0" length="4.5" maxSpeed="3.821697460565651" /><vType id="vType_car_8.593189637467791" accel="1.0" decel="5.0" sigma="0.0" length="4.5" maxSpeed="2.386997121518831" /><vType id="vType_car_5.285715141171383" accel="1.0" decel="5.0" sigma="0.0" length="4.5" maxSpeed="1.4682542058809396" /><vType id="vType_car_24.901295564119142" accel="1.0" decel="5.0" sigma="0.0" length="4.5" maxSpeed="6.917026545588651" /><vType id="vType_car_4.749022920318708" accel="1.0" decel="5.0" sigma="0.0" length="4.5" maxSpeed="1.3191730334218634" /><vType id="vType_car_9.394319014389234" accel="1.0" decel="5.0" sigma="0.0" length="4.5" maxSpeed="2.609533059552565" /><vType id="vType_car_4.428051425868521" accel="1.0" decel="5.0" sigma="0.0" length="4.5" maxSpeed="1.230014284963478" /><vType id="vType_car_5.071604050493668" accel="1.0" decel="5.0" sigma="0.0" length="4.5" maxSpeed="1.4087789029149076" /><vType id="vType_car_2.126919931874939" accel="1.0" decel="5.0" sigma="0.0" length="4.5" maxSpeed="0.5908110921874831" /><vType id="vType_truck_32.15263669765322" accel="1.0" decel="5.0" sigma="0.0" length="8" maxSpeed="8.93128797157034" /><vType id="vType_car_4.548148065708803" accel="1.0" decel="5.0" sigma="0.0" length="4.5" maxSpeed="1.2633744626968897" /><vType id="vType_car_9.048784735485443" accel="1.0" decel="5.0" sigma="0.0" length="4.5" maxSpeed="2.5135513154126228" /><vType id="vType_car_5.436247067564329" accel="1.0" decel="5.0" sigma="0.0" length="4.5" maxSpeed="1.5100686298789803" /><vType id="vType_car_5.503038593387004" accel="1.0" decel="5.0" sigma="0.0" length="4.5" maxSpeed="1.5286218314963897" /><vType id="vType_car_5.39733195241845" accel="1.0" decel="5.0" sigma="0.0" length="4.5" maxSpeed="1.4992588756717917" /><vType id="vType_car_3.8930638892842424" accel="1.0" decel="5.0" sigma="0.0" length="4.5" maxSpeed="1.0814066359122896" /><vType id="vType_car_5.604306233245428" accel="1.0" decel="5.0" sigma="0.0" length="4.5" maxSpeed="1.5567517314570631" /><vType id="vType_car_10.761379497152882" accel="1.0" decel="5.0" sigma="0.0" length="4.5" maxSpeed="2.9892720825424672" /><vType id="vType_car_10.484036321614377" accel="1.0" decel="5.0" sigma="0.0" length="4.5" maxSpeed="2.912232311559549" /><vType id="vType_car_4.3467896698486" accel="1.0" decel="5.0" sigma="0.0" length="4.5" maxSpeed="1.2074415749579444" /><vType id="vType_car_36.50829872227344" accel="1.0" decel="5.0" sigma="0.0" length="4.5" maxSpeed="10.141194089520399" /><vType id="vType_car_7.3970879436911225" accel="1.0" decel="5.0" sigma="0.0" length="4.5" maxSpeed="2.0547466510253116" /><vType id="vType_car_30.468411092312717" accel="1.0" decel="5.0" sigma="0.0" length="4.5" maxSpeed="8.46344752564242" /><vType id="vType_car_4.014220552197548" accel="1.0" decel="5.0" sigma="0.0" length="4.5" maxSpeed="1.115061264499319" /><vType id="vType_car_4.2960286325233685" accel="1.0" decel="5.0" sigma="0.0" length="4.5" maxSpeed="1.1933412868120468" /><vType id="vType_truck_12.94141147163418" accel="1.0" decel="5.0" sigma="0.0" length="8" maxSpeed="3.594836519898383" /><vType id="vType_car_4.905350660511899" accel="1.0" decel="5.0" sigma="0.0" length="4.5" maxSpeed="1.3625974056977497" /><vType id="vType_car_23.26475435194193" accel="1.0" decel="5.0" sigma="0.0" length="4.5" maxSpeed="6.462431764428314" /><vType id="vType_car_26.197249905834667" accel="1.0" decel="5.0" sigma="0.0" length="4.5" maxSpeed="7.2770138627318515" /><vType id="vType_car_9.260973367983244" accel="1.0" decel="5.0" sigma="0.0" length="4.5" maxSpeed="2.572492602217568" /><vType id="vType_truck_10.245855987642548" accel="1.0" decel="5.0" sigma="0.0" length="8" maxSpeed="2.8460711076784855" /><vType id="vType_car_18.95353358339944" accel="1.0" decel="5.0" sigma="0.0" length="4.5" maxSpeed="5.264870439833178" /><vType id="vType_car_7.432196054172078" accel="1.0" decel="5.0" sigma="0.0" length="4.5" maxSpeed="2.064498903936688" /><vType id="vType_car_42.06461246425115" accel="1.0" decel="5.0" sigma="0.0" length="4.5" maxSpeed="11.684614573403097" /><vType id="vType_car_26.84504593955076" accel="1.0" decel="5.0" sigma="0.0" length="4.5" maxSpeed="7.456957205430767" /><vType id="vType_car_11.134109907893071" accel="1.0" decel="5.0" sigma="0.0" length="4.5" maxSpeed="3.0928083077480752" /><vType id="vType_car_11.499121426695135" accel="1.0" decel="5.0" sigma="0.0" length="4.5" maxSpeed="3.194200396304204" /><vType id="vType_car_27.64977373249624" accel="1.0" decel="5.0" sigma="0.0" length="4.5" maxSpeed="7.680492703471177" /><vType id="vType_car_39.62031706716117" accel="1.0" decel="5.0" sigma="0.0" length="4.5" maxSpeed="11.005643629766992" /><vType id="vType_car_25.031723043709885" accel="1.0" decel="5.0" sigma="0.0" length="4.5" maxSpeed="6.953256401030523" /><vType id="vType_car_20.511201031001043" accel="1.0" decel="5.0" sigma="0.0" length="4.5" maxSpeed="5.697555841944734" /><vType id="vType_car_49.5536781989602" accel="1.0" decel="5.0" sigma="0.0" length="4.5" maxSpeed="13.764910610822277" /><vType id="vType_car_4.161874267298134" accel="1.0" decel="5.0" sigma="0.0" length="4.5" maxSpeed="1.1560761853605928" /><vType id="vType_car_6.5118002168169635" accel="1.0" decel="5.0" sigma="0.0" length="4.5" maxSpeed="1.8088333935602676" /><vType id="vType_car_14.000157593355164" accel="1.0" decel="5.0" sigma="0.0" length="4.5" maxSpeed="3.888932664820879" /><vType id="vType_car_40.788292483342296" accel="1.0" decel="5.0" sigma="0.0" length="4.5" maxSpeed="11.33008124537286" /><vType id="vType_car_4.9741077349121126" accel="1.0" decel="5.0" sigma="0.0" length="4.5" maxSpeed="1.3816965930311425" /><vType id="vType_car_14.194159041888186" accel="1.0" decel="5.0" sigma="0.0" length="4.5" maxSpeed="3.9428219560800515" /><vType id="vType_car_15.7551132883002" accel="1.0" decel="5.0" sigma="0.0" length="4.5" maxSpeed="4.376420357861166" /><vType id="vType_car_11.487274806742025" accel="1.0" decel="5.0" sigma="0.0" length="4.5" maxSpeed="3.1909096685394513" /><vType id="vType_car_3.062764701899913" accel="1.0" decel="5.0" sigma="0.0" length="4.5" maxSpeed="0.8507679727499757" /><vType id="vType_car_12.082646950364952" accel="1.0" decel="5.0" sigma="0.0" length="4.5" maxSpeed="3.3562908195458196" /><vType id="vType_car_2.6579071107686665" accel="1.0" decel="5.0" sigma="0.0" length="4.5" maxSpeed="0.738307530769074" /><vType id="vType_car_3.503184499374854" accel="1.0" decel="5.0" sigma="0.0" length="4.5" maxSpeed="0.9731068053819039" /><vType id="vType_car_79.24986924400206" accel="1.0" decel="5.0" sigma="0.0" length="4.5" maxSpeed="22.013852567778347" /><vType id="vType_car_5.780355828495142" accel="1.0" decel="5.0" sigma="0.0" length="4.5" maxSpeed="1.605654396804206" /><vType id="vType_car_75.50229565413146" accel="1.0" decel="5.0" sigma="0.0" length="4.5" maxSpeed="20.972859903925404" /><vType id="vType_car_12.873749210670695" accel="1.0" decel="5.0" sigma="0.0" length="4.5" maxSpeed="3.5760414474085263" /><vType id="vType_car_9.38232928979371" accel="1.0" decel="5.0" sigma="0.0" length="4.5" maxSpeed="2.6062025804982527" /><vType id="vType_car_13.227935158414414" accel="1.0" decel="5.0" sigma="0.0" length="4.5" maxSpeed="3.6744264328928926" /><vType id="vType_car_6.901041215059115" accel="1.0" decel="5.0" sigma="0.0" length="4.5" maxSpeed="1.9169558930719763" /><vType id="vType_car_6.238057831998193" accel="1.0" decel="5.0" sigma="0.0" length="4.5" maxSpeed="1.7327938422217204" /><vType id="vType_car_4.0049367885685925" accel="1.0" decel="5.0" sigma="0.0" length="4.5" maxSpeed="1.1124824412690535" /><vType id="vType_car_15.803603048562794" accel="1.0" decel="5.0" sigma="0.0" length="4.5" maxSpeed="4.389889735711887" /><vType id="vType_bus_45.844279842437935" accel="1.0" decel="5.0" sigma="0.0" length="13" maxSpeed="12.73452217845498" /><vType id="vType_car_3.9378130489979823" accel="1.0" decel="5.0" sigma="0.0" length="4.5" maxSpeed="1.0938369580549951" /><vType id="vType_car_39.00722074130423" accel="1.0" decel="5.0" sigma="0.0" length="4.5" maxSpeed="10.83533909480673" /><vType id="vType_car_12.393113744729817" accel="1.0" decel="5.0" sigma="0.0" length="4.5" maxSpeed="3.4425315957582825" /><vType id="vType_car_48.01692781541841" accel="1.0" decel="5.0" sigma="0.0" length="4.5" maxSpeed="13.338035504282892" /><vType id="vType_car_4.584057705044908" accel="1.0" decel="5.0" sigma="0.0" length="4.5" maxSpeed="1.2733493625124745" /><vType id="vType_car_7.273468028725346" accel="1.0" decel="5.0" sigma="0.0" length="4.5" maxSpeed="2.0204077857570404" /><vType id="vType_car_4.795937636285957" accel="1.0" decel="5.0" sigma="0.0" length="4.5" maxSpeed="1.3322048989683213" /><vType id="vType_car_3.781190989999892" accel="1.0" decel="5.0" sigma="0.0" length="4.5" maxSpeed="1.0503308305555255" /><vType id="vType_car_23.48151350478131" accel="1.0" decel="5.0" sigma="0.0" length="4.5" maxSpeed="6.522642640217031" /><vType id="vType_car_24.124997360886645" accel="1.0" decel="5.0" sigma="0.0" length="4.5" maxSpeed="6.701388155801846" /><vType id="vType_car_28.096216904525072" accel="1.0" decel="5.0" sigma="0.0" length="4.5" maxSpeed="7.804504695701409" /><vType id="vType_bus_30.11301038682489" accel="1.0" decel="5.0" sigma="0.0" length="13" maxSpeed="8.364725107451358" /><vType id="vType_car_34.168404695270375" accel="1.0" decel="5.0" sigma="0.0" length="4.5" maxSpeed="9.491223526463992" /><vType id="vType_car_32.656861257146915" accel="1.0" decel="5.0" sigma="0.0" length="4.5" maxSpeed="9.071350349207476" /><vType id="vType_car_17.492242971512873" accel="1.0" decel="5.0" sigma="0.0" length="4.5" maxSpeed="4.858956380975798" /><vType id="vType_car_3.8561423291038475" accel="1.0" decel="5.0" sigma="0.0" length="4.5" maxSpeed="1.071150646973291" /><vType id="vType_car_4.218671561468599" accel="1.0" decel="5.0" sigma="0.0" length="4.5" maxSpeed="1.1718532115190554" /><vType id="vType_car_4.977687336477327" accel="1.0" decel="5.0" sigma="0.0" length="4.5" maxSpeed="1.3826909267992575" /><vType id="vType_car_35.45545613694874" accel="1.0" decel="5.0" sigma="0.0" length="4.5" maxSpeed="9.848737815819094" /><vType id="vType_car_3.1454550835163553" accel="1.0" decel="5.0" sigma="0.0" length="4.5" maxSpeed="0.8737375231989876" /><vType id="vType_car_37.31685671553311" accel="1.0" decel="5.0" sigma="0.0" length="4.5" maxSpeed="10.365793532092532" /><vType id="vType_car_28.744565244756657" accel="1.0" decel="5.0" sigma="0.0" length="4.5" maxSpeed="7.984601456876849" /><vType id="vType_car_27.90578177582188" accel="1.0" decel="5.0" sigma="0.0" length="4.5" maxSpeed="7.7516060488394105" /><vType id="vType_car_5.197399181021109" accel="1.0" decel="5.0" sigma="0.0" length="4.5" maxSpeed="1.443721994728086" /><vType id="vType_car_30.391135303101017" accel="1.0" decel="5.0" sigma="0.0" length="4.5" maxSpeed="8.44198202863917" /><vType id="vType_car_31.99149019476403" accel="1.0" decel="5.0" sigma="0.0" length="4.5" maxSpeed="8.886525054101119" /><vType id="vType_truck_4.420458107635844" accel="1.0" decel="5.0" sigma="0.0" length="8" maxSpeed="1.2279050298988456" /><vType id="vType_bus_19.059243781830517" accel="1.0" decel="5.0" sigma="0.0" length="13" maxSpeed="5.29423438384181" /><vType id="vType_car_24.814366519879087" accel="1.0" decel="5.0" sigma="0.0" length="4.5" maxSpeed="6.892879588855302" /><vType id="vType_car_30.684466068813364" accel="1.0" decel="5.0" sigma="0.0" length="4.5" maxSpeed="8.5234627968926" /><vType id="vType_truck_3.740644126872512" accel="1.0" decel="5.0" sigma="0.0" length="8" maxSpeed="1.0390678130201423" /><route id="route_north_to_east" edges="north_to_center center_to_east" /><route id="route_north_to_south" edges="north_to_center center_to_south" /><route id="route_north_to_west" edges="north_to_center center_to_west" /><route id="route_east_to_west" edges="east_to_center center_to_west" /><route id="route_east_to_south" edges="east_to_center center_to_south" /><route id="route_east_to_north" edges="east_to_center center_to_north" /><route id="route_south_to_west" edges="south_to_center center_to_west" /><route id="route_south_to_north" edges="south_to_center center_to_north" /><route id="route_south_to_east" edges="south_to_center center_to_east" /><route id="route_west_to_south" edges="west_to_center center_to_south" /><route id="route_west_to_north" edges="west_to_center center_to_north" /><route id="route_west_to_east" edges="west_to_center center_to_east" /><vehicle id="veh1" type="vType_car_9.652432630651234" route="route_south_to_north" depart="0.03" /><vehicle id="veh6" type="vType_car_8.782069069846889" route="route_north_to_east" depart="0.03" /><vehicle id="veh8" type="vType_car_8.850321927368668" route="route_north_to_west" depart="0.03" /><vehicle id="veh9" type="vType_car_13.758110858036343" route="route_north_to_south" depart="0.03" /><vehicle id="veh10" type="vType_car_8.593189637467791" route="route_north_to_east" depart="0.03" /><vehicle id="veh12" type="vType_car_24.901295564119142" route="route_east_to_west" depart="0.03" /><vehicle id="veh15" type="vType_car_9.394319014389234" route="route_south_to_east" depart="0.30" /><vehicle id="veh19" type="vType_truck_32.15263669765322" route="route_west_to_east" depart="1.30" /><vehicle id="veh22" type="vType_car_9.048784735485443" route="route_north_to_south" depart="3.07" /><vehicle id="veh29" type="vType_car_10.761379497152882" route="route_north_to_west" depart="7.06" /><vehicle id="veh30" type="vType_car_10.484036321614377" route="route_north_to_east" depart="8.10" /><vehicle id="veh33" type="vType_car_36.50829872227344" route="route_east_to_west" depart="9.16" /><vehicle id="veh35" type="vType_car_30.468411092312717" route="route_east_to_west" depart="10.23" /><vehicle id="veh43" type="vType_truck_12.94141147163418" route="route_east_to_north" depart="13.40" /><vehicle id="veh48" type="vType_car_23.26475435194193" route="route_east_to_south" depart="18.36" /><vehicle id="veh52" type="vType_car_26.197249905834667" route="route_east_to_south" depart="19.93" /><vehicle id="veh54" type="vType_car_9.260973367983244" route="route_east_to_north" depart="20.86" /><vehicle id="veh57" type="vType_car_18.95353358339944" route="route_west_to_east" depart="21.13" /><vehicle id="veh59" type="vType_car_42.06461246425115" route="route_east_to_west" depart="21.73" /><vehicle id="veh60" type="vType_car_26.84504593955076" route="route_east_to_south" depart="21.96" /><vehicle id="veh62" type="vType_car_11.134109907893071" route="route_east_to_north" depart="22.26" /><vehicle id="veh64" type="vType_car_11.499121426695135" route="route_east_to_north" depart="23.79" /><vehicle id="veh66" type="vType_car_27.64977373249624" route="route_east_to_south" depart="24.03" /><vehicle id="veh67" type="vType_car_39.62031706716117" route="route_east_to_west" depart="24.63" /><vehicle id="veh68" type="vType_car_25.031723043709885" route="route_east_to_south" depart="24.79" /><vehicle id="veh69" type="vType_car_20.511201031001043" route="route_east_to_west" depart="25.96" /><vehicle id="veh73" type="vType_car_49.5536781989602" route="route_east_to_west" depart="27.36" /><vehicle id="veh77" type="vType_car_14.000157593355164" route="route_east_to_north" depart="32.19" /><vehicle id="veh78" type="vType_car_40.788292483342296" route="route_east_to_west" depart="32.29" /><vehicle id="veh87" type="vType_car_14.194159041888186" route="route_east_to_north" depart="37.12" /><vehicle id="veh92" type="vType_car_12.082646950364952" route="route_north_to_west" depart="43.49" /><vehicle id="veh96" type="vType_car_79.24986924400206" route="route_west_to_east" depart="51.38" /><vehicle id="veh98" type="vType_car_75.50229565413146" route="route_east_to_west" depart="51.75" /><vehicle id="veh99" type="vType_car_12.873749210670695" route="route_north_to_east" depart="52.98" /><vehicle id="veh107" type="vType_car_15.803603048562794" route="route_south_to_north" depart="61.11" /><vehicle id="veh108" type="vType_bus_45.844279842437935" route="route_south_to_west" depart="61.25" /><vehicle id="veh115" type="vType_car_39.00722074130423" route="route_south_to_west" depart="63.25" /><vehicle id="veh116" type="vType_car_12.393113744729817" route="route_south_to_east" depart="63.31" /><vehicle id="veh118" type="vType_car_48.01692781541841" route="route_south_to_west" depart="66.08" /><vehicle id="veh128" type="vType_car_23.48151350478131" route="route_south_to_east" depart="75.64" /><vehicle id="veh131" type="vType_car_24.124997360886645" route="route_north_to_south" depart="77.54" /><vehicle id="veh135" type="vType_car_28.096216904525072" route="route_south_to_north" depart="78.48" /><vehicle id="veh141" type="vType_car_34.168404695270375" route="route_south_to_north" depart="80.57" /><vehicle id="veh142" type="vType_car_32.656861257146915" route="route_south_to_north" depart="80.64" /><vehicle id="veh145" type="vType_car_17.492242971512873" route="route_south_to_east" depart="81.44" /><vehicle id="veh150" type="vType_car_35.45545613694874" route="route_south_to_north" depart="83.27" /><vehicle id="veh156" type="vType_car_37.31685671553311" route="route_south_to_north" depart="84.41" /><vehicle id="veh158" type="vType_car_28.744565244756657" route="route_north_to_south" depart="85.54" /><vehicle id="veh159" type="vType_car_27.90578177582188" route="route_south_to_north" depart="86.17" /><vehicle id="veh163" type="vType_car_30.391135303101017" route="route_north_to_south" depart="88.01" /><vehicle id="veh164" type="vType_car_31.99149019476403" route="route_south_to_north" depart="88.07" /><vehicle id="veh166" type="vType_bus_19.059243781830517" route="route_north_to_west" depart="89.01" /><vehicle id="veh167" type="vType_car_24.814366519879087" route="route_north_to_south" depart="89.61" /></routes>