<?xml version='1.0' encoding='utf-8'?>
<routes><vType id="vType_car_101.33329555814629" accel="1.0" decel="5.0" sigma="0.0" length="4.5" maxSpeed="28.148137655040635" /><vType id="vType_car_3.9419920077679764" accel="1.0" decel="5.0" sigma="0.0" length="4.5" maxSpeed="1.094997779935549" /><vType id="vType_car_57.99505116154547" accel="1.0" decel="5.0" sigma="0.0" length="4.5" maxSpeed="16.10973643376263" /><vType id="vType_car_37.5874673294064" accel="1.0" decel="5.0" sigma="0.0" length="4.5" maxSpeed="10.440963147057333" /><vType id="vType_car_52.72736016915163" accel="1.0" decel="5.0" sigma="0.0" length="4.5" maxSpeed="14.646488935875453" /><vType id="vType_car_44.44639448763299" accel="1.0" decel="5.0" sigma="0.0" length="4.5" maxSpeed="12.346220691009165" /><vType id="vType_bus_9.930584446867119" accel="1.0" decel="5.0" sigma="0.0" length="13" maxSpeed="2.7584956796853106" /><vType id="vType_car_42.18353808262716" accel="1.0" decel="5.0" sigma="0.0" length="4.5" maxSpeed="11.717649467396432" /><vType id="vType_car_5.966043327611761" accel="1.0" decel="5.0" sigma="0.0" length="4.5" maxSpeed="1.6572342576699335" /><vType id="vType_car_6.828642617477947" accel="1.0" decel="5.0" sigma="0.0" length="4.5" maxSpeed="1.8968451715216519" /><vType id="vType_car_45.59710373542943" accel="1.0" decel="5.0" sigma="0.0" length="4.5" maxSpeed="12.665862148730396" /><vType id="vType_car_29.977336855316175" accel="1.0" decel="5.0" sigma="0.0" length="4.5" maxSpeed="8.327038015365604" /><vType id="vType_car_36.55704264521385" accel="1.0" decel="5.0" sigma="0.0" length="4.5" maxSpeed="10.154734068114957" /><vType id="vType_car_25.840541409511463" accel="1.0" decel="5.0" sigma="0.0" length="4.5" maxSpeed="7.177928169308739" /><vType id="vType_car_36.18170833566285" accel="1.0" decel="5.0" sigma="0.0" length="4.5" maxSpeed="10.050474537684124" /><vType id="vType_car_12.954875092028134" accel="1.0" decel="5.0" sigma="0.0" length="4.5" maxSpeed="3.598576414452259" /><vType id="vType_car_22.175161131176523" accel="1.0" decel="5.0" sigma="0.0" length="4.5" maxSpeed="6.159766980882368" /><vType id="vType_car_6.253015269014198" accel="1.0" decel="5.0" sigma="0.0" length="4.5" maxSpeed="1.7369486858372771" /><vType id="vType_car_6.662466519704043" accel="1.0" decel="5.0" sigma="0.0" length="4.5" maxSpeed="1.850685144362234" /><vType id="vType_car_5.48860935048683" accel="1.0" decel="5.0" sigma="0.0" length="4.5" maxSpeed="1.5246137084685638" /><vType id="vType_truck_18.441759614151948" accel="1.0" decel="5.0" sigma="0.0" length="8" maxSpeed="5.122711003931097" /><vType id="vType_car_20.391794848307736" accel="1.0" decel="5.0" sigma="0.0" length="4.5" maxSpeed="5.66438745786326" /><vType id="vType_car_25.93556687337041" accel="1.0" decel="5.0" sigma="0.0" length="4.5" maxSpeed="7.20432413149178" /><vType id="vType_car_27.662431574150688" accel="1.0" decel="5.0" sigma="0.0" length="4.5" maxSpeed="7.684008770597413" /><vType id="vType_car_6.528269525881534" accel="1.0" decel="5.0" sigma="0.0" length="4.5" maxSpeed="1.8134082016337594" /><vType id="vType_car_5.162240084399171" accel="1.0" decel="5.0" sigma="0.0" length="4.5" maxSpeed="1.4339555789997698" /><vType id="vType_car_19.426467612861444" accel="1.0" decel="5.0" sigma="0.0" length="4.5" maxSpeed="5.396241003572623" /><vType id="vType_truck_34.79290436754575" accel="1.0" decel="5.0" sigma="0.0" length="8" maxSpeed="9.664695657651597" /><vType id="vType_car_24.641671973144515" accel="1.0" decel="5.0" sigma="0.0" length="4.5" maxSpeed="6.844908881429031" /><vType id="vType_car_5.60351445382175" accel="1.0" decel="5.0" sigma="0.0" length="4.5" maxSpeed="1.5565317927282638" /><vType id="vType_car_14.447750049556918" accel="1.0" decel="5.0" sigma="0.0" length="4.5" maxSpeed="4.0132639026547" /><vType id="vType_car_44.61510600015678" accel="1.0" decel="5.0" sigma="0.0" length="4.5" maxSpeed="12.393085000043548" /><vType id="vType_car_3.8509744973854394" accel="1.0" decel="5.0" sigma="0.0" length="4.5" maxSpeed="1.069715138162622" /><vType id="vType_car_25.159751084753438" accel="1.0" decel="5.0" sigma="0.0" length="4.5" maxSpeed="6.988819745764844" /><vType id="vType_car_13.630785272918711" accel="1.0" decel="5.0" sigma="0.0" length="4.5" maxSpeed="3.7863292424774198" /><vType id="vType_car_40.752732891928424" accel="1.0" decel="5.0" sigma="0.0" length="4.5" maxSpeed="11.32020358109123" /><vType id="vType_car_15.570000853305752" accel="1.0" decel="5.0" sigma="0.0" length="4.5" maxSpeed="4.325000237029375" /><vType id="vType_car_51.49959304181419" accel="1.0" decel="5.0" sigma="0.0" length="4.5" maxSpeed="14.305442511615052" /><vType id="vType_car_4.490396887076251" accel="1.0" decel="5.0" sigma="0.0" length="4.5" maxSpeed="1.247332468632292" /><vType id="vType_car_19.67390168527129" accel="1.0" decel="5.0" sigma="0.0" length="4.5" maxSpeed="5.464972690353136" /><vType id="vType_car_48.48670888891663" accel="1.0" decel="5.0" sigma="0.0" length="4.5" maxSpeed="13.468530246921286" /><vType id="vType_car_30.649117140961504" accel="1.0" decel="5.0" sigma="0.0" length="4.5" maxSpeed="8.513643650267085" /><vType id="vType_car_54.3365453334098" accel="1.0" decel="5.0" sigma="0.0" length="4.5" maxSpeed="15.093484814836057" /><vType id="vType_car_19.140093469267228" accel="1.0" decel="5.0" sigma="0.0" length="4.5" maxSpeed="5.316692630352008" /><vType id="vType_car_93.16047848886204" accel="1.0" decel="5.0" sigma="0.0" length="4.5" maxSpeed="25.877910691350564" /><vType id="vType_car_3.993570934073015" accel="1.0" decel="5.0" sigma="0.0" length="4.5" maxSpeed="1.1093252594647263" /><vType id="vType_car_12.189059920069672" accel="1.0" decel="5.0" sigma="0.0" length="4.5" maxSpeed="3.385849977797131" /><vType id="vType_bus_11.728224022209993" accel="1.0" decel="5.0" sigma="0.0" length="13" maxSpeed="3.2578400061694426" /><vType id="vType_car_51.20964763675568" accel="1.0" decel="5.0" sigma="0.0" length="4.5" maxSpeed="14.224902121321023" /><vType id="vType_car_42.76499975368967" accel="1.0" decel="5.0" sigma="0.0" length="4.5" maxSpeed="11.879166598247132" /><vType id="vType_truck_15.236663059970118" accel="1.0" decel="5.0" sigma="0.0" length="8" maxSpeed="4.232406405547255" /><vType id="vType_car_74.93799041386195" accel="1.0" decel="5.0" sigma="0.0" length="4.5" maxSpeed="20.816108448294987" /><vType id="vType_car_34.12119624134252" accel="1.0" decel="5.0" sigma="0.0" length="4.5" maxSpeed="9.478110067039587" /><vType id="vType_car_4.509360197123378" accel="1.0" decel="5.0" sigma="0.0" length="4.5" maxSpeed="1.252600054756494" /><vType id="vType_car_18.602823231367278" accel="1.0" decel="5.0" sigma="0.0" length="4.5" maxSpeed="5.167450897602022" /><vType id="vType_truck_9.729171386715265" accel="1.0" decel="5.0" sigma="0.0" length="8" maxSpeed="2.702547607420907" /><vType id="vType_bus_23.762537045875515" accel="1.0" decel="5.0" sigma="0.0" length="13" maxSpeed="6.60070473496542" /><vType id="vType_car_32.05909541542629" accel="1.0" decel="5.0" sigma="0.0" length="4.5" maxSpeed="8.90530428206286" /><vType id="vType_car_23.827316876157155" accel="1.0" decel="5.0" sigma="0.0" length="4.5" maxSpeed="6.618699132265876" /><vType id="vType_car_87.039355906779" accel="1.0" decel="5.0" sigma="0.0" length="4.5" maxSpeed="24.177598862994163" /><vType id="vType_car_21.969973586451957" accel="1.0" decel="5.0" sigma="0.0" length="4.5" maxSpeed="6.102770440681099" /><vType id="vType_car_60.734352677613806" accel="1.0" decel="5.0" sigma="0.0" length="4.5" maxSpeed="16.87065352155939" /><vType id="vType_car_16.093588654142422" accel="1.0" decel="5.0" sigma="0.0" length="4.5" maxSpeed="4.470441292817339" /><vType id="vType_car_4.165059026786807" accel="1.0" decel="5.0" sigma="0.0" length="4.5" maxSpeed="1.156960840774113" /><vType id="vType_car_3.789033812518558" accel="1.0" decel="5.0" sigma="0.0" length="4.5" maxSpeed="1.052509392366266" /><vType id="vType_car_42.49652720891536" accel="1.0" decel="5.0" sigma="0.0" length="4.5" maxSpeed="11.804590891365377" /><vType id="vType_car_26.13001106008423" accel="1.0" decel="5.0" sigma="0.0" length="4.5" maxSpeed="7.2583364055789525" /><vType id="vType_car_24.444225184134034" accel="1.0" decel="5.0" sigma="0.0" length="4.5" maxSpeed="6.790062551148343" /><vType id="vType_car_15.418100074645144" accel="1.0" decel="5.0" sigma="0.0" length="4.5" maxSpeed="4.282805576290317" /><vType id="vType_car_27.57918178207948" accel="1.0" decel="5.0" sigma="0.0" length="4.5" maxSpeed="7.660883828355411" /><vType id="vType_truck_12.210011515100051" accel="1.0" decel="5.0" sigma="0.0" length="8" maxSpeed="3.3916698653055697" /><vType id="vType_car_41.444166691640014" accel="1.0" decel="5.0" sigma="0.0" length="4.5" maxSpeed="11.512268525455559" /><vType id="vType_car_10.723585676177409" accel="1.0" decel="5.0" sigma="0.0" length="4.5" maxSpeed="2.9787737989381693" /><vType id="vType_car_20.460734100305515" accel="1.0" decel="5.0" sigma="0.0" length="4.5" maxSpeed="5.683537250084865" /><vType id="vType_car_7.105378621531072" accel="1.0" decel="5.0" sigma="0.0" length="4.5" maxSpeed="1.973716283758631" /><vType id="vType_truck_8.818322491503363" accel="1.0" decel="5.0" sigma="0.0" length="8" maxSpeed="2.449534025417601" /><vType id="vType_car_36.48514114440436" accel="1.0" decel="5.0" sigma="0.0" length="4.5" maxSpeed="10.13476142900121" /><vType id="vType_car_19.372883406959005" accel="1.0" decel="5.0" sigma="0.0" length="4.5" maxSpeed="5.381356501933057" /><vType id="vType_car_5.999839160193176" accel="1.0" decel="5.0" sigma="0.0" length="4.5" maxSpeed="1.6666219889425489" /><route id="route_north_to_south" edges="north_to_center center_to_south" /><route id="route_south_to_north" edges="south_to_center center_to_north" /><vehicle id="veh3" type="vType_car_57.99505116154547" route="route_north_to_south" depart="0.03" /><vehicle id="veh5" type="vType_car_37.5874673294064" route="route_north_to_south" depart="2.70" /><vehicle id="veh7" type="vType_car_52.72736016915163" route="route_north_to_south" depart="3.30" /><vehicle id="veh8" type="vType_car_44.44639448763299" route="route_north_to_south" depart="5.03" /><vehicle id="veh13" type="vType_car_42.18353808262716" route="route_north_to_south" depart="10.60" /><vehicle id="veh17" type="vType_car_45.59710373542943" route="route_north_to_south" depart="12.70" /><vehicle id="veh18" type="vType_car_29.977336855316175" route="route_north_to_south" depart="15.00" /><vehicle id="veh20" type="vType_car_36.55704264521385" route="route_north_to_south" depart="17.43" /><vehicle id="veh21" type="vType_car_25.840541409511463" route="route_north_to_south" depart="17.43" /><vehicle id="veh51" type="vType_car_36.18170833566285" route="route_north_to_south" depart="17.43" /><vehicle id="veh81" type="vType_car_19.140093469267228" route="route_north_to_south" depart="77.90" /><vehicle id="veh100" type="vType_bus_23.762537045875515" route="route_north_to_south" depart="125.53" /><vehicle id="veh128" type="vType_car_16.093588654142422" route="route_south_to_north" depart="129.83" /><vehicle id="veh150" type="vType_car_42.49652720891536" route="route_north_to_south" depart="129.83" /><vehicle id="veh151" type="vType_car_26.13001106008423" route="route_north_to_south" depart="129.83" /><vehicle id="veh155" type="vType_car_27.57918178207948" route="route_north_to_south" depart="131.73" /><vehicle id="veh159" type="vType_car_41.444166691640014" route="route_north_to_south" depart="135.67" /><vehicle id="veh161" type="vType_car_20.460734100305515" route="route_south_to_north" depart="138.53" /><vehicle id="veh165" type="vType_car_36.48514114440436" route="route_south_to_north" depart="146.50" /></routes>