<?xml version='1.0' encoding='utf-8'?>
<routes><vType id="vType_car_18.02362963333411" accel="1.0" decel="5.0" sigma="0.0" length="4.5" maxSpeed="5.006563787037253" /><vType id="vType_car_9.594894172970406" accel="1.0" decel="5.0" sigma="0.0" length="4.5" maxSpeed="2.6652483813806684" /><vType id="vType_car_44.92840449177028" accel="1.0" decel="5.0" sigma="0.0" length="4.5" maxSpeed="12.480112358825078" /><vType id="vType_car_5.291044765467982" accel="1.0" decel="5.0" sigma="0.0" length="4.5" maxSpeed="1.4697346570744394" /><vType id="vType_car_16.577765793341026" accel="1.0" decel="5.0" sigma="0.0" length="4.5" maxSpeed="4.6049349425947295" /><vType id="vType_car_9.51073231435569" accel="1.0" decel="5.0" sigma="0.0" length="4.5" maxSpeed="2.641870087321025" /><vType id="vType_car_29.54281233284566" accel="1.0" decel="5.0" sigma="0.0" length="4.5" maxSpeed="8.206336759123793" /><vType id="vType_car_10.63093674152838" accel="1.0" decel="5.0" sigma="0.0" length="4.5" maxSpeed="2.9530379837578833" /><vType id="vType_car_7.71136172223913" accel="1.0" decel="5.0" sigma="0.0" length="4.5" maxSpeed="2.1420449228442027" /><vType id="vType_car_10.281493671098897" accel="1.0" decel="5.0" sigma="0.0" length="4.5" maxSpeed="2.855970464194138" /><vType id="vType_car_8.003656869106413" accel="1.0" decel="5.0" sigma="0.0" length="4.5" maxSpeed="2.2232380191962258" /><vType id="vType_car_2.9230817409511807" accel="1.0" decel="5.0" sigma="0.0" length="4.5" maxSpeed="0.8119671502642168" /><vType id="vType_car_42.20100730822951" accel="1.0" decel="5.0" sigma="0.0" length="4.5" maxSpeed="11.722502030063751" /><vType id="vType_car_10.88124198982267" accel="1.0" decel="5.0" sigma="0.0" length="4.5" maxSpeed="3.022567219395186" /><vType id="vType_car_2.8366745829824125" accel="1.0" decel="5.0" sigma="0.0" length="4.5" maxSpeed="0.787965161939559" /><vType id="vType_car_67.25824940170563" accel="1.0" decel="5.0" sigma="0.0" length="4.5" maxSpeed="18.682847056029342" /><vType id="vType_car_4.928694155673377" accel="1.0" decel="5.0" sigma="0.0" length="4.5" maxSpeed="1.3690817099092716" /><vType id="vType_car_2.701594840935631" accel="1.0" decel="5.0" sigma="0.0" length="4.5" maxSpeed="0.7504430113710086" /><vType id="vType_car_51.866804185213006" accel="1.0" decel="5.0" sigma="0.0" length="4.5" maxSpeed="14.407445607003613" /><vType id="vType_car_32.053329385169114" accel="1.0" decel="5.0" sigma="0.0" length="4.5" maxSpeed="8.90370260699142" /><vType id="vType_car_80.1262002912058" accel="1.0" decel="5.0" sigma="0.0" length="4.5" maxSpeed="22.257277858668278" /><vType id="vType_car_4.259316438030343" accel="1.0" decel="5.0" sigma="0.0" length="4.5" maxSpeed="1.1831434550084285" /><vType id="vType_bus_23.489277059614615" accel="1.0" decel="5.0" sigma="0.0" length="13" maxSpeed="6.524799183226282" /><vType id="vType_car_11.838436864775918" accel="1.0" decel="5.0" sigma="0.0" length="4.5" maxSpeed="3.2884546846599774" /><vType id="vType_car_8.774109817868528" accel="1.0" decel="5.0" sigma="0.0" length="4.5" maxSpeed="2.4372527271857023" /><vType id="vType_car_5.215793942102103" accel="1.0" decel="5.0" sigma="0.0" length="4.5" maxSpeed="1.4488316505839174" /><vType id="vType_car_9.057904442395957" accel="1.0" decel="5.0" sigma="0.0" length="4.5" maxSpeed="2.5160845673322103" /><vType id="vType_car_9.58470525080361" accel="1.0" decel="5.0" sigma="0.0" length="4.5" maxSpeed="2.662418125223225" /><vType id="vType_car_25.006091388433017" accel="1.0" decel="5.0" sigma="0.0" length="4.5" maxSpeed="6.9461364967869486" /><vType id="vType_car_4.732337905287984" accel="1.0" decel="5.0" sigma="0.0" length="4.5" maxSpeed="1.31453830702444" /><vType id="vType_car_9.991445816296704" accel="1.0" decel="5.0" sigma="0.0" length="4.5" maxSpeed="2.775401615637973" /><vType id="vType_car_2.0802280275204357" accel="1.0" decel="5.0" sigma="0.0" length="4.5" maxSpeed="0.5778411187556766" /><vType id="vType_truck_33.93273022134205" accel="1.0" decel="5.0" sigma="0.0" length="8" maxSpeed="9.425758394817235" /><vType id="vType_car_4.240799648661718" accel="1.0" decel="5.0" sigma="0.0" length="4.5" maxSpeed="1.1779999024060328" /><vType id="vType_car_9.399784129982384" accel="1.0" decel="5.0" sigma="0.0" length="4.5" maxSpeed="2.611051147217329" /><vType id="vType_car_4.039268811084166" accel="1.0" decel="5.0" sigma="0.0" length="4.5" maxSpeed="1.122019114190046" /><vType id="vType_car_5.484527940554426" accel="1.0" decel="5.0" sigma="0.0" length="4.5" maxSpeed="1.5234799834873405" /><vType id="vType_car_4.54875914555121" accel="1.0" decel="5.0" sigma="0.0" length="4.5" maxSpeed="1.2635442070975582" /><vType id="vType_car_4.443341365409488" accel="1.0" decel="5.0" sigma="0.0" length="4.5" maxSpeed="1.2342614903915243" /><vType id="vType_car_3.7281553979363617" accel="1.0" decel="5.0" sigma="0.0" length="4.5" maxSpeed="1.0355987216489893" /><vType id="vType_car_10.433179460842684" accel="1.0" decel="5.0" sigma="0.0" length="4.5" maxSpeed="2.8981054057896345" /><vType id="vType_car_4.521421589081597" accel="1.0" decel="5.0" sigma="0.0" length="4.5" maxSpeed="1.2559504414115548" /><vType id="vType_car_36.2342794378412" accel="1.0" decel="5.0" sigma="0.0" length="4.5" maxSpeed="10.065077621622557" /><vType id="vType_car_9.122831161114048" accel="1.0" decel="5.0" sigma="0.0" length="4.5" maxSpeed="2.5341197669761244" /><vType id="vType_car_4.069696365938718" accel="1.0" decel="5.0" sigma="0.0" length="4.5" maxSpeed="1.130471212760755" /><vType id="vType_car_4.396651618189739" accel="1.0" decel="5.0" sigma="0.0" length="4.5" maxSpeed="1.2212921161638164" /><vType id="vType_car_30.384680714564556" accel="1.0" decel="5.0" sigma="0.0" length="4.5" maxSpeed="8.440189087379043" /><vType id="vType_car_3.782232777309883" accel="1.0" decel="5.0" sigma="0.0" length="4.5" maxSpeed="1.050620215919412" /><vType id="vType_truck_12.974056293058664" accel="1.0" decel="5.0" sigma="0.0" length="8" maxSpeed="3.6039045258496287" /><vType id="vType_car_3.7903665084098144" accel="1.0" decel="5.0" sigma="0.0" length="4.5" maxSpeed="1.0528795856693929" /><vType id="vType_car_24.491339566210154" accel="1.0" decel="5.0" sigma="0.0" length="4.5" maxSpeed="6.80314987950282" /><vType id="vType_car_9.132072504410326" accel="1.0" decel="5.0" sigma="0.0" length="4.5" maxSpeed="2.536686806780646" /><vType id="vType_car_25.248283782886425" accel="1.0" decel="5.0" sigma="0.0" length="4.5" maxSpeed="7.013412161912895" /><vType id="vType_truck_11.172294452272611" accel="1.0" decel="5.0" sigma="0.0" length="8" maxSpeed="3.103415125631281" /><vType id="vType_car_18.5967409130923" accel="1.0" decel="5.0" sigma="0.0" length="4.5" maxSpeed="5.165761364747861" /><vType id="vType_car_41.526610278539444" accel="1.0" decel="5.0" sigma="0.0" length="4.5" maxSpeed="11.535169521816512" /><vType id="vType_car_9.04682064249952" accel="1.0" decel="5.0" sigma="0.0" length="4.5" maxSpeed="2.5130057340276446" /><vType id="vType_car_26.730259006284083" accel="1.0" decel="5.0" sigma="0.0" length="4.5" maxSpeed="7.425071946190023" /><vType id="vType_car_10.887821582420006" accel="1.0" decel="5.0" sigma="0.0" length="4.5" maxSpeed="3.0243948840055572" /><vType id="vType_car_12.763115092038603" accel="1.0" decel="5.0" sigma="0.0" length="4.5" maxSpeed="3.545309747788501" /><vType id="vType_car_38.77277401883567" accel="1.0" decel="5.0" sigma="0.0" length="4.5" maxSpeed="10.77021500523213" /><vType id="vType_car_27.87267399525475" accel="1.0" decel="5.0" sigma="0.0" length="4.5" maxSpeed="7.742409443126319" /><vType id="vType_car_25.031743479750617" accel="1.0" decel="5.0" sigma="0.0" length="4.5" maxSpeed="6.953262077708504" /><vType id="vType_car_20.28655639424747" accel="1.0" decel="5.0" sigma="0.0" length="4.5" maxSpeed="5.63515455395763" /><vType id="vType_car_48.91975243878404" accel="1.0" decel="5.0" sigma="0.0" length="4.5" maxSpeed="13.588820121884455" /><vType id="vType_car_4.16355930892273" accel="1.0" decel="5.0" sigma="0.0" length="4.5" maxSpeed="1.156544252478536" /><vType id="vType_car_6.861391290663053" accel="1.0" decel="5.0" sigma="0.0" length="4.5" maxSpeed="1.9059420251841814" /><vType id="vType_car_14.190764462655675" accel="1.0" decel="5.0" sigma="0.0" length="4.5" maxSpeed="3.941879017404354" /><vType id="vType_car_40.817856918742386" accel="1.0" decel="5.0" sigma="0.0" length="4.5" maxSpeed="11.338293588539551" /><vType id="vType_car_4.60390136380182" accel="1.0" decel="5.0" sigma="0.0" length="4.5" maxSpeed="1.27886148994495" /><vType id="vType_car_15.337435653349935" accel="1.0" decel="5.0" sigma="0.0" length="4.5" maxSpeed="4.260398792597204" /><vType id="vType_car_14.400703444323442" accel="1.0" decel="5.0" sigma="0.0" length="4.5" maxSpeed="4.000195401200956" /><vType id="vType_car_11.821318321481566" accel="1.0" decel="5.0" sigma="0.0" length="4.5" maxSpeed="3.2836995337448793" /><vType id="vType_car_2.9414702122227516" accel="1.0" decel="5.0" sigma="0.0" length="4.5" maxSpeed="0.8170750589507643" /><vType id="vType_car_12.712773765822483" accel="1.0" decel="5.0" sigma="0.0" length="4.5" maxSpeed="3.5313260460618006" /><vType id="vType_car_3.560674710820276" accel="1.0" decel="5.0" sigma="0.0" length="4.5" maxSpeed="0.9890763085611878" /><vType id="vType_car_78.60109550458367" accel="1.0" decel="5.0" sigma="0.0" length="4.5" maxSpeed="21.83363764016213" /><vType id="vType_car_5.893774128957293" accel="1.0" decel="5.0" sigma="0.0" length="4.5" maxSpeed="1.6371594802659148" /><vType id="vType_car_75.5036882594436" accel="1.0" decel="5.0" sigma="0.0" length="4.5" maxSpeed="20.973246738734336" /><vType id="vType_car_13.141936523711404" accel="1.0" decel="5.0" sigma="0.0" length="4.5" maxSpeed="3.6505379232531676" /><vType id="vType_car_10.23915558058584" accel="1.0" decel="5.0" sigma="0.0" length="4.5" maxSpeed="2.8442098834960663" /><vType id="vType_car_12.202343296452016" accel="1.0" decel="5.0" sigma="0.0" length="4.5" maxSpeed="3.3895398045700045" /><vType id="vType_car_7.195166410308066" accel="1.0" decel="5.0" sigma="0.0" length="4.5" maxSpeed="1.998657336196685" /><vType id="vType_car_6.750158847424611" accel="1.0" decel="5.0" sigma="0.0" length="4.5" maxSpeed="1.875044124284614" /><vType id="vType_car_4.095563199792645" accel="1.0" decel="5.0" sigma="0.0" length="4.5" maxSpeed="1.1376564443868458" /><vType id="vType_car_16.513912971355982" accel="1.0" decel="5.0" sigma="0.0" length="4.5" maxSpeed="4.587198047598884" /><vType id="vType_bus_46.31165391059176" accel="1.0" decel="5.0" sigma="0.0" length="13" maxSpeed="12.86434830849771" /><vType id="vType_car_3.1781261531562213" accel="1.0" decel="5.0" sigma="0.0" length="4.5" maxSpeed="0.8828128203211726" /><vType id="vType_car_12.504975124523241" accel="1.0" decel="5.0" sigma="0.0" length="4.5" maxSpeed="3.473604201256456" /><vType id="vType_car_37.90151415088918" accel="1.0" decel="5.0" sigma="0.0" length="4.5" maxSpeed="10.528198375246994" /><vType id="vType_car_48.12751595896593" accel="1.0" decel="5.0" sigma="0.0" length="4.5" maxSpeed="13.36875443304609" /><vType id="vType_car_4.959100391445646" accel="1.0" decel="5.0" sigma="0.0" length="4.5" maxSpeed="1.3775278865126794" /><vType id="vType_car_6.362876644075593" accel="1.0" decel="5.0" sigma="0.0" length="4.5" maxSpeed="1.7674657344654423" /><vType id="vType_car_5.675355349526882" accel="1.0" decel="5.0" sigma="0.0" length="4.5" maxSpeed="1.5764875970908006" /><vType id="vType_car_22.699455085121105" accel="1.0" decel="5.0" sigma="0.0" length="4.5" maxSpeed="6.3054041903114175" /><vType id="vType_car_25.26010034273145" accel="1.0" decel="5.0" sigma="0.0" length="4.5" maxSpeed="7.0166945396476255" /><vType id="vType_car_1.7499586065493482" accel="1.0" decel="5.0" sigma="0.0" length="4.5" maxSpeed="0.4860996129303745" /><vType id="vType_car_28.291801916073403" accel="1.0" decel="5.0" sigma="0.0" length="4.5" maxSpeed="7.858833865575945" /><vType id="vType_bus_30.008664175242515" accel="1.0" decel="5.0" sigma="0.0" length="13" maxSpeed="8.335740048678476" /><vType id="vType_car_34.38629518160733" accel="1.0" decel="5.0" sigma="0.0" length="4.5" maxSpeed="9.55174866155759" /><vType id="vType_car_18.98168138113747" accel="1.0" decel="5.0" sigma="0.0" length="4.5" maxSpeed="5.272689272538186" /><vType id="vType_car_32.71399162095881" accel="1.0" decel="5.0" sigma="0.0" length="4.5" maxSpeed="9.08721989471078" /><vType id="vType_car_3.9222088897052" accel="1.0" decel="5.0" sigma="0.0" length="4.5" maxSpeed="1.0895024693625555" /><vType id="vType_car_4.4106763555105175" accel="1.0" decel="5.0" sigma="0.0" length="4.5" maxSpeed="1.2251878765306994" /><vType id="vType_car_4.5930636436072705" accel="1.0" decel="5.0" sigma="0.0" length="4.5" maxSpeed="1.2758510121131306" /><vType id="vType_car_5.0163602869854875" accel="1.0" decel="5.0" sigma="0.0" length="4.5" maxSpeed="1.3934334130515242" /><vType id="vType_car_35.48872712239988" accel="1.0" decel="5.0" sigma="0.0" length="4.5" maxSpeed="9.85797975622219" /><vType id="vType_car_37.235162486113154" accel="1.0" decel="5.0" sigma="0.0" length="4.5" maxSpeed="10.343100690586986" /><vType id="vType_car_28.242256767398732" accel="1.0" decel="5.0" sigma="0.0" length="4.5" maxSpeed="7.845071324277425" /><vType id="vType_car_28.594023570139555" accel="1.0" decel="5.0" sigma="0.0" length="4.5" maxSpeed="7.942784325038765" /><vType id="vType_car_5.452984584888811" accel="1.0" decel="5.0" sigma="0.0" length="4.5" maxSpeed="1.514717940246892" /><vType id="vType_car_30.52021188682097" accel="1.0" decel="5.0" sigma="0.0" length="4.5" maxSpeed="8.477836635228048" /><vType id="vType_car_32.40062116309043" accel="1.0" decel="5.0" sigma="0.0" length="4.5" maxSpeed="9.000172545302897" /><vType id="vType_truck_4.614372329131622" accel="1.0" decel="5.0" sigma="0.0" length="8" maxSpeed="1.2817700914254504" /><vType id="vType_bus_17.869598519247948" accel="1.0" decel="5.0" sigma="0.0" length="13" maxSpeed="4.963777366457763" /><vType id="vType_car_25.10592660468459" accel="1.0" decel="5.0" sigma="0.0" length="4.5" maxSpeed="6.973868501301275" /><vType id="vType_car_30.064722728185448" accel="1.0" decel="5.0" sigma="0.0" length="4.5" maxSpeed="8.351311868940401" /><vType id="vType_truck_3.3005328115480377" accel="1.0" decel="5.0" sigma="0.0" length="8" maxSpeed="0.9168146698744549" /><route id="route_north_to_east" edges="north_to_center center_to_east" /><route id="route_north_to_south" edges="north_to_center center_to_south" /><route id="route_north_to_west" edges="north_to_center center_to_west" /><route id="route_east_to_west" edges="east_to_center center_to_west" /><route id="route_east_to_south" edges="east_to_center center_to_south" /><route id="route_east_to_north" edges="east_to_center center_to_north" /><route id="route_south_to_west" edges="south_to_center center_to_west" /><route id="route_south_to_north" edges="south_to_center center_to_north" /><route id="route_south_to_east" edges="south_to_center center_to_east" /><route id="route_west_to_south" edges="west_to_center center_to_south" /><route id="route_west_to_north" edges="west_to_center center_to_north" /><route id="route_west_to_east" edges="west_to_center center_to_east" /><vehicle id="veh2" type="vType_car_9.594894172970406" route="route_south_to_north" depart="0.03" /><vehicle id="veh3" type="vType_car_44.92840449177028" route="route_west_to_east" depart="0.03" /><vehicle id="veh8" type="vType_car_29.54281233284566" route="route_east_to_west" depart="0.03" /><vehicle id="veh9" type="vType_car_10.63093674152838" route="route_east_to_north" depart="0.03" /><vehicle id="veh12" type="vType_car_8.003656869106413" route="route_north_to_east" depart="0.03" /><vehicle id="veh6" type="vType_car_42.20100730822951" route="route_west_to_east" depart="0.13" /><vehicle id="veh15" type="vType_car_10.88124198982267" route="route_south_to_east" depart="0.27" /><vehicle id="veh18" type="vType_car_67.25824940170563" route="route_west_to_east" depart="1.60" /><vehicle id="veh22" type="vType_car_32.053329385169114" route="route_east_to_west" depart="3.90" /><vehicle id="veh24" type="vType_car_80.1262002912058" route="route_west_to_east" depart="3.93" /><vehicle id="veh32" type="vType_car_11.838436864775918" route="route_north_to_south" depart="6.97" /><vehicle id="veh33" type="vType_car_8.774109817868528" route="route_north_to_east" depart="7.57" /><vehicle id="veh35" type="vType_car_9.057904442395957" route="route_north_to_west" depart="8.60" /><vehicle id="veh37" type="vType_car_9.58470525080361" route="route_south_to_east" depart="8.93" /><vehicle id="veh38" type="vType_car_25.006091388433017" route="route_east_to_west" depart="9.80" /><vehicle id="veh40" type="vType_car_9.991445816296704" route="route_north_to_west" depart="10.37" /><vehicle id="veh42" type="vType_truck_33.93273022134205" route="route_west_to_east" depart="11.37" /><vehicle id="veh44" type="vType_car_9.399784129982384" route="route_north_to_south" depart="13.13" /><vehicle id="veh52" type="vType_car_10.433179460842684" route="route_north_to_east" depart="18.17" /><vehicle id="veh54" type="vType_car_36.2342794378412" route="route_east_to_west" depart="19.23" /><vehicle id="veh59" type="vType_car_30.384680714564556" route="route_east_to_west" depart="21.00" /><vehicle id="veh64" type="vType_truck_12.974056293058664" route="route_east_to_north" depart="23.70" /><vehicle id="veh68" type="vType_car_24.491339566210154" route="route_east_to_south" depart="28.40" /><vehicle id="veh69" type="vType_car_9.132072504410326" route="route_east_to_north" depart="29.87" /><vehicle id="veh70" type="vType_car_25.248283782886425" route="route_east_to_south" depart="29.90" /><vehicle id="veh73" type="vType_car_18.5967409130923" route="route_west_to_east" depart="31.20" /><vehicle id="veh74" type="vType_car_41.526610278539444" route="route_east_to_west" depart="31.47" /><vehicle id="veh76" type="vType_car_26.730259006284083" route="route_east_to_south" depart="32.03" /><vehicle id="veh78" type="vType_car_10.887821582420006" route="route_east_to_north" depart="32.30" /><vehicle id="veh82" type="vType_car_12.763115092038603" route="route_east_to_north" depart="33.87" /><vehicle id="veh85" type="vType_car_38.77277401883567" route="route_east_to_west" depart="34.03" /><vehicle id="veh87" type="vType_car_27.87267399525475" route="route_east_to_south" depart="34.33" /><vehicle id="veh88" type="vType_car_25.031743479750617" route="route_east_to_south" depart="34.87" /><vehicle id="veh90" type="vType_car_20.28655639424747" route="route_east_to_west" depart="36.00" /><vehicle id="veh94" type="vType_car_48.91975243878404" route="route_east_to_west" depart="37.40" /><vehicle id="veh97" type="vType_car_14.190764462655675" route="route_east_to_north" depart="42.27" /><vehicle id="veh98" type="vType_car_40.817856918742386" route="route_east_to_west" depart="42.37" /><vehicle id="veh101" type="vType_car_15.337435653349935" route="route_east_to_north" depart="45.90" /><vehicle id="veh102" type="vType_car_14.400703444323442" route="route_east_to_north" depart="47.20" /><vehicle id="veh110" type="vType_car_12.712773765822483" route="route_north_to_west" depart="55.03" /><vehicle id="veh115" type="vType_car_78.60109550458367" route="route_west_to_east" depart="61.50" /><vehicle id="veh117" type="vType_car_75.5036882594436" route="route_east_to_west" depart="61.83" /><vehicle id="veh118" type="vType_car_13.141936523711404" route="route_north_to_east" depart="62.67" /><vehicle id="veh127" type="vType_car_16.513912971355982" route="route_south_to_north" depart="71.20" /><vehicle id="veh128" type="vType_bus_46.31165391059176" route="route_south_to_west" depart="71.33" /><vehicle id="veh134" type="vType_car_12.504975124523241" route="route_south_to_east" depart="73.33" /><vehicle id="veh135" type="vType_car_37.90151415088918" route="route_south_to_west" depart="73.37" /><vehicle id="veh137" type="vType_car_48.12751595896593" route="route_south_to_west" depart="76.20" /><vehicle id="veh144" type="vType_car_22.699455085121105" route="route_south_to_east" depart="86.20" /><vehicle id="veh145" type="vType_car_25.26010034273145" route="route_north_to_south" depart="87.47" /><vehicle id="veh148" type="vType_car_28.291801916073403" route="route_south_to_north" depart="88.57" /><vehicle id="veh154" type="vType_car_34.38629518160733" route="route_south_to_north" depart="90.67" /><vehicle id="veh156" type="vType_car_18.98168138113747" route="route_south_to_east" depart="90.80" /><vehicle id="veh157" type="vType_car_32.71399162095881" route="route_south_to_north" depart="91.10" /><vehicle id="veh164" type="vType_car_35.48872712239988" route="route_south_to_north" depart="93.37" /><vehicle id="veh169" type="vType_car_37.235162486113154" route="route_south_to_north" depart="94.50" /><vehicle id="veh170" type="vType_car_28.242256767398732" route="route_north_to_south" depart="95.13" /><vehicle id="veh173" type="vType_car_28.594023570139555" route="route_south_to_north" depart="96.30" /><vehicle id="veh178" type="vType_car_30.52021188682097" route="route_north_to_south" depart="98.17" /><vehicle id="veh179" type="vType_car_32.40062116309043" route="route_south_to_north" depart="98.23" /><vehicle id="veh181" type="vType_bus_17.869598519247948" route="route_north_to_west" depart="99.07" /><vehicle id="veh182" type="vType_car_25.10592660468459" route="route_north_to_south" depart="99.73" /></routes>