<?xml version='1.0' encoding='utf-8'?>
<routes><vType id="vType_1.8905753744494898" accel="1.0" decel="5.0" sigma="0.0" length="5" maxSpeed="0.5251598262359694" /><vType id="vType_2.8358630616742344" accel="1.0" decel="5.0" sigma="0.0" length="5" maxSpeed="0.787739739353954" /><vType id="vType_3.530823048132565" accel="1.0" decel="5.0" sigma="0.0" length="5" maxSpeed="0.9807841800368235" /><vType id="vType_4.800104674307822" accel="1.0" decel="5.0" sigma="0.0" length="5" maxSpeed="1.3333624095299506" /><vType id="vType_5.121244905872699" accel="1.0" decel="5.0" sigma="0.0" length="5" maxSpeed="1.4225680294090832" /><vType id="vType_6.835285297153619" accel="1.0" decel="5.0" sigma="0.0" length="5" maxSpeed="1.8986903603204497" /><vType id="vType_4.836802599513043" accel="1.0" decel="5.0" sigma="0.0" length="5" maxSpeed="1.343556277642512" /><vType id="vType_4.167534073329117" accel="1.0" decel="5.0" sigma="0.0" length="5" maxSpeed="1.1576483537025324" /><vType id="vType_5.920092617087027" accel="1.0" decel="5.0" sigma="0.0" length="5" maxSpeed="1.644470171413063" /><vType id="vType_3.618965022459806" accel="1.0" decel="5.0" sigma="0.0" length="5" maxSpeed="1.0052680617943905" /><vType id="vType_3.7811507488989795" accel="1.0" decel="5.0" sigma="0.0" length="5" maxSpeed="1.0503196524719387" /><vType id="vType_12.452835305511485" accel="1.0" decel="5.0" sigma="0.0" length="5" maxSpeed="3.459120918197635" /><vType id="vType_12.455778643327728" accel="1.0" decel="5.0" sigma="0.0" length="5" maxSpeed="3.45993851203548" /><vType id="vType_5.092668244751289" accel="1.0" decel="5.0" sigma="0.0" length="5" maxSpeed="1.4146300679864692" /><vType id="vType_14.506545465848081" accel="1.0" decel="5.0" sigma="0.0" length="5" maxSpeed="4.029595962735578" /><vType id="vType_16.60486099566725" accel="1.0" decel="5.0" sigma="0.0" length="5" maxSpeed="4.612461387685347" /><vType id="vType_17.09062157706534" accel="1.0" decel="5.0" sigma="0.0" length="5" maxSpeed="4.747394882518149" /><vType id="vType_17.280060599405704" accel="1.0" decel="5.0" sigma="0.0" length="5" maxSpeed="4.800016833168251" /><vType id="vType_13.035716767706436" accel="1.0" decel="5.0" sigma="0.0" length="5" maxSpeed="3.6210324354740098" /><vType id="vType_3.75751809472019" accel="1.0" decel="5.0" sigma="0.0" length="5" maxSpeed="1.043755026311164" /><vType id="vType_12.791032795839582" accel="1.0" decel="5.0" sigma="0.0" length="5" maxSpeed="3.5530646655109948" /><vType id="vType_13.009007777871952" accel="1.0" decel="5.0" sigma="0.0" length="5" maxSpeed="3.6136132716310976" /><vType id="vType_15.462170189110298" accel="1.0" decel="5.0" sigma="0.0" length="5" maxSpeed="4.295047274752861" /><vType id="vType_16.48472905375621" accel="1.0" decel="5.0" sigma="0.0" length="5" maxSpeed="4.579091403821169" /><vType id="vType_24.317408571291143" accel="1.0" decel="5.0" sigma="0.0" length="5" maxSpeed="6.754835714247539" /><vType id="vType_26.73677335235061" accel="1.0" decel="5.0" sigma="0.0" length="5" maxSpeed="7.426881486764058" /><vType id="vType_25.919322909917668" accel="1.0" decel="5.0" sigma="0.0" length="5" maxSpeed="7.199811919421574" /><vType id="vType_28.493661098899473" accel="1.0" decel="5.0" sigma="0.0" length="5" maxSpeed="7.914905860805409" /><vType id="vType_28.89552860150393" accel="1.0" decel="5.0" sigma="0.0" length="5" maxSpeed="8.02653572263998" /><vType id="vType_30.217805885546653" accel="1.0" decel="5.0" sigma="0.0" length="5" maxSpeed="8.393834968207404" /><vType id="vType_31.668487050962547" accel="1.0" decel="5.0" sigma="0.0" length="5" maxSpeed="8.796801958600707" /><vType id="vType_6.0071248415125" accel="1.0" decel="5.0" sigma="0.0" length="5" maxSpeed="1.6686457893090276" /><vType id="vType_33.52543687272897" accel="1.0" decel="5.0" sigma="0.0" length="5" maxSpeed="9.312621353535825" /><vType id="vType_26.80018535939406" accel="1.0" decel="5.0" sigma="0.0" length="5" maxSpeed="7.444495933165016" /><vType id="vType_27.776239072819322" accel="1.0" decel="5.0" sigma="0.0" length="5" maxSpeed="7.715621964672033" /><vType id="vType_31.73693578416961" accel="1.0" decel="5.0" sigma="0.0" length="5" maxSpeed="8.815815495602669" /><vType id="vType_33.819640430849425" accel="1.0" decel="5.0" sigma="0.0" length="5" maxSpeed="9.39434456412484" /><vType id="vType_38.8991562618164" accel="1.0" decel="5.0" sigma="0.0" length="5" maxSpeed="10.805321183837888" /><vType id="vType_34.0062925277982" accel="1.0" decel="5.0" sigma="0.0" length="5" maxSpeed="9.446192368832834" /><vType id="vType_40.65874606523402" accel="1.0" decel="5.0" sigma="0.0" length="5" maxSpeed="11.294096129231672" /><vType id="vType_41.05031717174937" accel="1.0" decel="5.0" sigma="0.0" length="5" maxSpeed="11.40286588104149" /><vType id="vType_41.380162132177034" accel="1.0" decel="5.0" sigma="0.0" length="5" maxSpeed="11.494489481160286" /><vType id="vType_43.11175162489817" accel="1.0" decel="5.0" sigma="0.0" length="5" maxSpeed="11.975486562471714" /><vType id="vType_43.45767049103756" accel="1.0" decel="5.0" sigma="0.0" length="5" maxSpeed="12.071575136399321" /><vType id="vType_45.199124987943755" accel="1.0" decel="5.0" sigma="0.0" length="5" maxSpeed="12.555312496651043" /><vType id="vType_44.43496530962011" accel="1.0" decel="5.0" sigma="0.0" length="5" maxSpeed="12.34304591933892" /><vType id="vType_40.87546165673189" accel="1.0" decel="5.0" sigma="0.0" length="5" maxSpeed="11.354294904647748" /><vType id="vType_43.83361124706458" accel="1.0" decel="5.0" sigma="0.0" length="5" maxSpeed="12.176003124184605" /><vType id="vType_44.25723483305532" accel="1.0" decel="5.0" sigma="0.0" length="5" maxSpeed="12.293676342515367" /><vType id="vType_43.572547301787296" accel="1.0" decel="5.0" sigma="0.0" length="5" maxSpeed="12.103485361607582" /><vType id="vType_51.46241834243246" accel="1.0" decel="5.0" sigma="0.0" length="5" maxSpeed="14.295116206231238" /><vType id="vType_47.41562923642522" accel="1.0" decel="5.0" sigma="0.0" length="5" maxSpeed="13.171008121229226" /><vType id="vType_46.65982047622323" accel="1.0" decel="5.0" sigma="0.0" length="5" maxSpeed="12.961061243395342" /><vType id="vType_54.22976089304717" accel="1.0" decel="5.0" sigma="0.0" length="5" maxSpeed="15.06382247029088" /><vType id="vType_55.05438591983979" accel="1.0" decel="5.0" sigma="0.0" length="5" maxSpeed="15.292884977733275" /><vType id="vType_49.104345017374435" accel="1.0" decel="5.0" sigma="0.0" length="5" maxSpeed="13.640095838159565" /><vType id="vType_57.425096579732575" accel="1.0" decel="5.0" sigma="0.0" length="5" maxSpeed="15.951415716592381" /><vType id="vType_57.39139599980916" accel="1.0" decel="5.0" sigma="0.0" length="5" maxSpeed="15.942054444391434" /><vType id="vType_57.89065226942123" accel="1.0" decel="5.0" sigma="0.0" length="5" maxSpeed="16.0807367415059" /><vType id="vType_61.89361584499067" accel="1.0" decel="5.0" sigma="0.0" length="5" maxSpeed="17.192671068052963" /><vType id="vType_62.25835633836572" accel="1.0" decel="5.0" sigma="0.0" length="5" maxSpeed="17.293987871768255" /><vType id="vType_69.0823965103441" accel="1.0" decel="5.0" sigma="0.0" length="5" maxSpeed="19.189554586206693" /><vType id="vType_71.99096545670507" accel="1.0" decel="5.0" sigma="0.0" length="5" maxSpeed="19.997490404640295" /><vType id="vType_74.79430895412045" accel="1.0" decel="5.0" sigma="0.0" length="5" maxSpeed="20.776196931700124" /><vType id="vType_75.05369936548317" accel="1.0" decel="5.0" sigma="0.0" length="5" maxSpeed="20.848249823745324" /><vType id="vType_76.52304590603836" accel="1.0" decel="5.0" sigma="0.0" length="5" maxSpeed="21.25640164056621" /><vType id="vType_78.0593247288666" accel="1.0" decel="5.0" sigma="0.0" length="5" maxSpeed="21.6831457580185" /><vType id="vType_83.2380215875026" accel="1.0" decel="5.0" sigma="0.0" length="5" maxSpeed="23.121672663195167" /><vType id="vType_4.38971777685692" accel="1.0" decel="5.0" sigma="0.0" length="5" maxSpeed="1.2193660491269223" /><vType id="vType_17.243528891615846" accel="1.0" decel="5.0" sigma="0.0" length="5" maxSpeed="4.789869136559957" /><vType id="vType_4.506048733221484" accel="1.0" decel="5.0" sigma="0.0" length="5" maxSpeed="1.2516802036726344" /><vType id="vType_19.280161452471866" accel="1.0" decel="5.0" sigma="0.0" length="5" maxSpeed="5.355600403464407" /><vType id="vType_19.498931614275698" accel="1.0" decel="5.0" sigma="0.0" length="5" maxSpeed="5.416369892854361" /><vType id="vType_20.536955161650596" accel="1.0" decel="5.0" sigma="0.0" length="5" maxSpeed="5.704709767125165" /><vType id="vType_106.83703698639806" accel="1.0" decel="5.0" sigma="0.0" length="5" maxSpeed="29.676954718443906" /><vType id="vType_21.214759544048178" accel="1.0" decel="5.0" sigma="0.0" length="5" maxSpeed="5.892988762235605" /><vType id="vType_3.8266755958640117" accel="1.0" decel="5.0" sigma="0.0" length="5" maxSpeed="1.0629654432955589" /><vType id="vType_3.622056874838728" accel="1.0" decel="5.0" sigma="0.0" length="5" maxSpeed="1.0061269096774244" /><vType id="vType_3.368304324543652" accel="1.0" decel="5.0" sigma="0.0" length="5" maxSpeed="0.9356400901510145" /><vType id="vType_23.318403348691653" accel="1.0" decel="5.0" sigma="0.0" length="5" maxSpeed="6.477334263525459" /><vType id="vType_28.358630616742346" accel="1.0" decel="5.0" sigma="0.0" length="5" maxSpeed="7.877397393539541" /><vType id="vType_3.9899779384417986" accel="1.0" decel="5.0" sigma="0.0" length="5" maxSpeed="1.1083272051227218" /><vType id="vType_3.33338289705568" accel="1.0" decel="5.0" sigma="0.0" length="5" maxSpeed="0.9259396936265777" /><vType id="vType_4.270231221958982" accel="1.0" decel="5.0" sigma="0.0" length="5" maxSpeed="1.1861753394330505" /><vType id="vType_4.563733591451426" accel="1.0" decel="5.0" sigma="0.0" length="5" maxSpeed="1.2677037754031737" /><vType id="vType_5.192439570042575" accel="1.0" decel="5.0" sigma="0.0" length="5" maxSpeed="1.4423443250118264" /><vType id="vType_6.292707410000782" accel="1.0" decel="5.0" sigma="0.0" length="5" maxSpeed="1.7479742805557728" /><vType id="vType_6.159575193978371" accel="1.0" decel="5.0" sigma="0.0" length="5" maxSpeed="1.7109931094384365" /><vType id="vType_32.12156608681294" accel="1.0" decel="5.0" sigma="0.0" length="5" maxSpeed="8.922657246336927" /><vType id="vType_9.387456634257513" accel="1.0" decel="5.0" sigma="0.0" length="5" maxSpeed="2.607626842849309" /><vType id="vType_9.09065361344228" accel="1.0" decel="5.0" sigma="0.0" length="5" maxSpeed="2.525181559289522" /><vType id="vType_3.8195390503358007" accel="1.0" decel="5.0" sigma="0.0" length="5" maxSpeed="1.0609830695377225" /><vType id="vType_2.1254339885526106" accel="1.0" decel="5.0" sigma="0.0" length="5" maxSpeed="0.590398330153503" /><vType id="vType_42.872730791257986" accel="1.0" decel="5.0" sigma="0.0" length="5" maxSpeed="11.909091886460551" /><vType id="vType_43.91298346659856" accel="1.0" decel="5.0" sigma="0.0" length="5" maxSpeed="12.198050962944045" /><vType id="vType_6.025291588825584" accel="1.0" decel="5.0" sigma="0.0" length="5" maxSpeed="1.6736921080071065" /><vType id="vType_0.8912257784116869" accel="1.0" decel="5.0" sigma="0.0" length="5" maxSpeed="0.24756271622546858" /><vType id="vType_3.5746555804586286" accel="1.0" decel="5.0" sigma="0.0" length="5" maxSpeed="0.9929598834607302" /><vType id="vType_4.0966183449677835" accel="1.0" decel="5.0" sigma="0.0" length="5" maxSpeed="1.1379495402688287" /><vType id="vType_4.666125569863265" accel="1.0" decel="5.0" sigma="0.0" length="5" maxSpeed="1.2961459916286848" /><vType id="vType_4.937723452550902" accel="1.0" decel="5.0" sigma="0.0" length="5" maxSpeed="1.371589847930806" /><vType id="vType_5.036896553296923" accel="1.0" decel="5.0" sigma="0.0" length="5" maxSpeed="1.3991379314713677" /><vType id="vType_5.32120234787217" accel="1.0" decel="5.0" sigma="0.0" length="5" maxSpeed="1.478111763297825" /><vType id="vType_5.021398163011096" accel="1.0" decel="5.0" sigma="0.0" length="5" maxSpeed="1.3948328230586378" /><vType id="vType_5.100199252162607" accel="1.0" decel="5.0" sigma="0.0" length="5" maxSpeed="1.416722014489613" /><vType id="vType_6.006368803794519" accel="1.0" decel="5.0" sigma="0.0" length="5" maxSpeed="1.6684357788318107" /><vType id="vType_8.372321468661024" accel="1.0" decel="5.0" sigma="0.0" length="5" maxSpeed="2.32564485240584" /><vType id="vType_3.254444996473549" accel="1.0" decel="5.0" sigma="0.0" length="5" maxSpeed="0.9040124990204302" /><vType id="vType_10.02431507522574" accel="1.0" decel="5.0" sigma="0.0" length="5" maxSpeed="2.7845319653404834" /><vType id="vType_10.457694581807413" accel="1.0" decel="5.0" sigma="0.0" length="5" maxSpeed="2.9049151616131703" /><vType id="vType_10.055629235057435" accel="1.0" decel="5.0" sigma="0.0" length="5" maxSpeed="2.7932303430715097" /><vType id="vType_10.187346933803358" accel="1.0" decel="5.0" sigma="0.0" length="5" maxSpeed="2.829818592723155" /><vType id="vType_11.201703862469298" accel="1.0" decel="5.0" sigma="0.0" length="5" maxSpeed="3.1115844062414717" /><vType id="vType_11.21037639759729" accel="1.0" decel="5.0" sigma="0.0" length="5" maxSpeed="3.113993443777025" /><vType id="vType_11.418738676294044" accel="1.0" decel="5.0" sigma="0.0" length="5" maxSpeed="3.171871854526123" /><vType id="vType_14.249219564660311" accel="1.0" decel="5.0" sigma="0.0" length="5" maxSpeed="3.9581165457389753" /><vType id="vType_15.227649393640792" accel="1.0" decel="5.0" sigma="0.0" length="5" maxSpeed="4.2299026093446646" /><vType id="vType_16.92601924580067" accel="1.0" decel="5.0" sigma="0.0" length="5" maxSpeed="4.701672012722408" /><vType id="vType_16.909820215424713" accel="1.0" decel="5.0" sigma="0.0" length="5" maxSpeed="4.69717228206242" /><vType id="vType_16.101015806950056" accel="1.0" decel="5.0" sigma="0.0" length="5" maxSpeed="4.47250439081946" /><vType id="vType_4.508712165709331" accel="1.0" decel="5.0" sigma="0.0" length="5" maxSpeed="1.2524200460303696" /><vType id="vType_5.900764887377062" accel="1.0" decel="5.0" sigma="0.0" length="5" maxSpeed="1.6391013576047395" /><vType id="vType_6.899357217241236" accel="1.0" decel="5.0" sigma="0.0" length="5" maxSpeed="1.9164881159003433" /><vType id="vType_6.855282751769235" accel="1.0" decel="5.0" sigma="0.0" length="5" maxSpeed="1.9042452088247874" /><vType id="vType_19.318945007894722" accel="1.0" decel="5.0" sigma="0.0" length="5" maxSpeed="5.36637361330409" /><vType id="vType_6.098614339069909" accel="1.0" decel="5.0" sigma="0.0" length="5" maxSpeed="1.6940595386305302" /><vType id="vType_7.427907211253793" accel="1.0" decel="5.0" sigma="0.0" length="5" maxSpeed="2.0633075586816094" /><vType id="vType_3.937771141056094" accel="1.0" decel="5.0" sigma="0.0" length="5" maxSpeed="1.093825316960026" /><vType id="vType_25.862203590264638" accel="1.0" decel="5.0" sigma="0.0" length="5" maxSpeed="7.183945441740177" /><vType id="vType_25.763078112258437" accel="1.0" decel="5.0" sigma="0.0" length="5" maxSpeed="7.156410586738454" /><vType id="vType_26.468055242292852" accel="1.0" decel="5.0" sigma="0.0" length="5" maxSpeed="7.35223756730357" /><vType id="vType_28.1710395890838" accel="1.0" decel="5.0" sigma="0.0" length="5" maxSpeed="7.8252887747455" /><vType id="vType_28.009691002080896" accel="1.0" decel="5.0" sigma="0.0" length="5" maxSpeed="7.780469722800248" /><vType id="vType_4.564252709684551" accel="1.0" decel="5.0" sigma="0.0" length="5" maxSpeed="1.2678479749123752" /><vType id="vType_4.807119770436982" accel="1.0" decel="5.0" sigma="0.0" length="5" maxSpeed="1.335311047343606" /><vType id="vType_5.671726123348469" accel="1.0" decel="5.0" sigma="0.0" length="5" maxSpeed="1.575479478707908" /><vType id="vType_5.406408511385157" accel="1.0" decel="5.0" sigma="0.0" length="5" maxSpeed="1.5017801420514325" /><vType id="vType_5.840123638615912" accel="1.0" decel="5.0" sigma="0.0" length="5" maxSpeed="1.6222565662821977" /><vType id="vType_5.041534331865305" accel="1.0" decel="5.0" sigma="0.0" length="5" maxSpeed="1.400426203295918" /><vType id="vType_6.65711854700921" accel="1.0" decel="5.0" sigma="0.0" length="5" maxSpeed="1.8491995963914472" /><vType id="vType_6.162979700537695" accel="1.0" decel="5.0" sigma="0.0" length="5" maxSpeed="1.7119388057049154" /><vType id="vType_8.454910107712356" accel="1.0" decel="5.0" sigma="0.0" length="5" maxSpeed="2.34858614103121" /><vType id="vType_8.28890157041342" accel="1.0" decel="5.0" sigma="0.0" length="5" maxSpeed="2.3024726584481723" /><vType id="vType_8.912277407860136" accel="1.0" decel="5.0" sigma="0.0" length="5" maxSpeed="2.4756326132944824" /><vType id="vType_3.797945630777589" accel="1.0" decel="5.0" sigma="0.0" length="5" maxSpeed="1.0549848974382192" /><vType id="vType_12.172742978808918" accel="1.0" decel="5.0" sigma="0.0" length="5" maxSpeed="3.3813174941135884" /><vType id="vType_4.511901964033746" accel="1.0" decel="5.0" sigma="0.0" length="5" maxSpeed="1.253306101120485" /><vType id="vType_4.5742085353053445" accel="1.0" decel="5.0" sigma="0.0" length="5" maxSpeed="1.2706134820292623" /><vType id="vType_4.456665027323729" accel="1.0" decel="5.0" sigma="0.0" length="5" maxSpeed="1.2379625075899248" /><vType id="vType_6.61427305447885" accel="1.0" decel="5.0" sigma="0.0" length="5" maxSpeed="1.8372980706885693" /><vType id="vType_1.2603835829663264" accel="1.0" decel="5.0" sigma="0.0" length="5" maxSpeed="0.3501065508239795" /><vType id="vType_3.149672589141175" accel="1.0" decel="5.0" sigma="0.0" length="5" maxSpeed="0.8749090525392154" /><route id="route_north_to_east" edges="north_to_center center_to_east" /><route id="route_north_to_south" edges="north_to_center center_to_south" /><route id="route_north_to_west" edges="north_to_center center_to_west" /><route id="route_east_to_west" edges="east_to_center center_to_west" /><route id="route_east_to_south" edges="east_to_center center_to_south" /><route id="route_east_to_north" edges="east_to_center center_to_north" /><route id="route_south_to_west" edges="south_to_center center_to_west" /><route id="route_south_to_north" edges="south_to_center center_to_north" /><route id="route_south_to_east" edges="south_to_center center_to_east" /><route id="route_west_to_south" edges="west_to_center center_to_south" /><route id="route_west_to_north" edges="west_to_center center_to_north" /><route id="route_west_to_east" edges="west_to_center center_to_east" /><vehicle id="veh5" type="vType_41.05031717174937" route="route_north_to_south" depart="3.17" /><vehicle id="veh8" type="vType_12.452835305511485" route="route_west_to_north" depart="4.40" /><vehicle id="veh34" type="vType_43.45767049103756" route="route_east_to_west" depart="16.73" /><vehicle id="veh46" type="vType_83.2380215875026" route="route_west_to_east" depart="21.93" /><vehicle id="veh66" type="vType_17.280060599405704" route="route_west_to_north" depart="28.93" /><vehicle id="veh153" type="vType_33.52543687272897" route="route_west_to_east" depart="49.90" /><vehicle id="veh154" type="vType_40.65874606523402" route="route_west_to_south" depart="50.27" /><vehicle id="veh163" type="vType_38.8991562618164" route="route_west_to_east" depart="50.73" /><vehicle id="veh206" type="vType_24.317408571291143" route="route_east_to_west" depart="54.57" /><vehicle id="veh227" type="vType_45.199124987943755" route="route_east_to_west" depart="58.40" /><vehicle id="veh234" type="vType_44.43496530962011" route="route_east_to_west" depart="59.20" /><vehicle id="veh237" type="vType_69.0823965103441" route="route_west_to_east" depart="59.50" /><vehicle id="veh264" type="vType_43.83361124706458" route="route_east_to_west" depart="63.63" /><vehicle id="veh274" type="vType_19.318945007894722" route="route_north_to_south" depart="64.23" /><vehicle id="veh329" type="vType_28.89552860150393" route="route_west_to_north" depart="69.07" /><vehicle id="veh342" type="vType_30.217805885546653" route="route_north_to_south" depart="75.30" /><vehicle id="veh357" type="vType_20.536955161650596" route="route_north_to_east" depart="76.53" /><vehicle id="veh366" type="vType_26.80018535939406" route="route_north_to_east" depart="77.33" /><vehicle id="veh385" type="vType_43.572547301787296" route="route_north_to_south" depart="78.83" /><vehicle id="veh429" type="vType_46.65982047622323" route="route_north_to_south" depart="80.77" /><vehicle id="veh430" type="vType_25.862203590264638" route="route_north_to_west" depart="80.77" /><vehicle id="veh436" type="vType_27.776239072819322" route="route_north_to_south" depart="81.13" /><vehicle id="veh440" type="vType_25.763078112258437" route="route_north_to_east" depart="81.23" /><vehicle id="veh463" type="vType_49.104345017374435" route="route_north_to_south" depart="82.47" /><vehicle id="veh517" type="vType_34.0062925277982" route="route_north_to_south" depart="85.83" /></routes>