<?xml version='1.0' encoding='utf-8'?>
<routes><vType id="car" accel="1.0" decel="5.0" sigma="0.0" length="5" maxSpeed="33.33" /><vType id="bus" accel="1.0" decel="5.0" sigma="0.0" length="15" maxSpeed="3.33" /><vType id="truck" accel="1.0" decel="5.0" sigma="0.0" length="10" maxSpeed="20" /><route id="route0" edges="1to2 2to3" /><vehicle id="veh1" type="car" route="route0" depart="0.03" /><vehicle id="veh2" type="car" route="route0" depart="0.03" /><vehicle id="veh3" type="car" route="route0" depart="0.03" /><vehicle id="veh4" type="car" route="route0" depart="0.03" /><vehicle id="veh5" type="car" route="route0" depart="0.03" /><vehicle id="veh6" type="car" route="route0" depart="0.03" /><vehicle id="veh7" type="car" route="route0" depart="0.03" /><vehicle id="veh8" type="car" route="route0" depart="0.03" /><vehicle id="veh9" type="car" route="route0" depart="0.03" /><vehicle id="veh10" type="car" route="route0" depart="0.03" /><vehicle id="veh11" type="car" route="route0" depart="0.03" /><vehicle id="veh12" type="car" route="route0" depart="0.03" /><vehicle id="veh13" type="car" route="route0" depart="0.03" /><vehicle id="veh15" type="car" route="route0" depart="0.43" /><vehicle id="veh16" type="car" route="route0" depart="0.70" /><vehicle id="veh18" type="car" route="route0" depart="1.30" /><vehicle id="veh21" type="car" route="route0" depart="1.33" /><vehicle id="veh25" type="car" route="route0" depart="1.67" /><vehicle id="veh35" type="car" route="route0" depart="3.00" /><vehicle id="veh36" type="car" route="route0" depart="3.13" /><vehicle id="veh37" type="car" route="route0" depart="3.37" /><vehicle id="veh41" type="car" route="route0" depart="4.10" /><vehicle id="veh51" type="truck" route="route0" depart="4.70" /><vehicle id="veh57" type="car" route="route0" depart="5.00" /><vehicle id="veh60" type="truck" route="route0" depart="5.37" /><vehicle id="veh74" type="car" route="route0" depart="6.73" /><vehicle id="veh75" type="car" route="route0" depart="7.10" /><vehicle id="veh81" type="car" route="route0" depart="8.00" /><vehicle id="veh84" type="car" route="route0" depart="8.27" /><vehicle id="veh86" type="car" route="route0" depart="8.33" /><vehicle id="veh87" type="car" route="route0" depart="8.43" /><vehicle id="veh89" type="car" route="route0" depart="8.60" /><vehicle id="veh94" type="car" route="route0" depart="9.07" /><vehicle id="veh95" type="car" route="route0" depart="9.13" /><vehicle id="veh108" type="car" route="route0" depart="9.77" /><vehicle id="veh118" type="car" route="route0" depart="10.73" /><vehicle id="veh119" type="car" route="route0" depart="10.73" /><vehicle id="veh124" type="car" route="route0" depart="11.00" /><vehicle id="veh126" type="car" route="route0" depart="11.10" /><vehicle id="veh127" type="car" route="route0" depart="11.27" /><vehicle id="veh140" type="car" route="route0" depart="12.10" /><vehicle id="veh141" type="car" route="route0" depart="12.20" /><vehicle id="veh156" type="car" route="route0" depart="13.03" /><vehicle id="veh160" type="car" route="route0" depart="13.13" /><vehicle id="veh161" type="car" route="route0" depart="13.23" /><vehicle id="veh162" type="car" route="route0" depart="13.30" /><vehicle id="veh165" type="car" route="route0" depart="14.10" /><vehicle id="veh167" type="car" route="route0" depart="14.40" /><vehicle id="veh168" type="car" route="route0" depart="14.93" /><vehicle id="veh169" type="car" route="route0" depart="14.97" /><vehicle id="veh173" type="car" route="route0" depart="16.80" /><vehicle id="veh174" type="car" route="route0" depart="17.07" /><vehicle id="veh176" type="car" route="route0" depart="19.17" /><vehicle id="veh177" type="car" route="route0" depart="19.30" /><vehicle id="veh178" type="car" route="route0" depart="19.63" /><vehicle id="veh179" type="car" route="route0" depart="19.67" /><vehicle id="veh180" type="car" route="route0" depart="20.13" /><vehicle id="veh183" type="car" route="route0" depart="20.17" /><vehicle id="veh185" type="car" route="route0" depart="20.80" /><vehicle id="veh186" type="car" route="route0" depart="21.07" /><vehicle id="veh187" type="car" route="route0" depart="21.07" /><vehicle id="veh188" type="car" route="route0" depart="21.07" /><vehicle id="veh195" type="car" route="route0" depart="21.83" /><vehicle id="veh198" type="car" route="route0" depart="21.90" /><vehicle id="veh202" type="car" route="route0" depart="22.47" /><vehicle id="veh204" type="car" route="route0" depart="22.67" /><vehicle id="veh205" type="car" route="route0" depart="23.27" /><vehicle id="veh210" type="car" route="route0" depart="23.47" /><vehicle id="veh211" type="car" route="route0" depart="23.50" /><vehicle id="veh212" type="car" route="route0" depart="23.73" /><vehicle id="veh217" type="car" route="route0" depart="24.77" /><vehicle id="veh218" type="car" route="route0" depart="24.90" /><vehicle id="veh221" type="car" route="route0" depart="26.53" /><vehicle id="veh223" type="car" route="route0" depart="26.67" /><vehicle id="veh227" type="car" route="route0" depart="27.00" /><vehicle id="veh228" type="car" route="route0" depart="27.33" /><vehicle id="veh229" type="car" route="route0" depart="27.33" /><vehicle id="veh238" type="truck" route="route0" depart="28.23" /><vehicle id="veh240" type="bus" route="route0" depart="28.57" /><vehicle id="veh241" type="car" route="route0" depart="28.80" /><vehicle id="veh242" type="car" route="route0" depart="29.10" /><vehicle id="veh245" type="truck" route="route0" depart="29.33" /><vehicle id="veh247" type="car" route="route0" depart="29.87" /><vehicle id="veh248" type="car" route="route0" depart="30.00" /><vehicle id="veh251" type="car" route="route0" depart="30.63" /><vehicle id="veh252" type="car" route="route0" depart="30.80" /><vehicle id="veh254" type="car" route="route0" depart="31.17" /><vehicle id="veh261" type="car" route="route0" depart="32.43" /><vehicle id="veh262" type="car" route="route0" depart="32.43" /><vehicle id="veh264" type="car" route="route0" depart="32.77" /><vehicle id="veh267" type="car" route="route0" depart="33.07" /><vehicle id="veh269" type="bus" route="route0" depart="33.10" /><vehicle id="veh270" type="car" route="route0" depart="33.23" /><vehicle id="veh272" type="car" route="route0" depart="33.70" /><vehicle id="veh275" type="car" route="route0" depart="34.07" /><vehicle id="veh282" type="car" route="route0" depart="34.30" /><vehicle id="veh294" type="car" route="route0" depart="35.23" /><vehicle id="veh296" type="car" route="route0" depart="35.37" /><vehicle id="veh299" type="car" route="route0" depart="35.53" /><vehicle id="veh306" type="car" route="route0" depart="35.67" /><vehicle id="veh307" type="car" route="route0" depart="35.67" /><vehicle id="veh308" type="car" route="route0" depart="35.70" /><vehicle id="veh317" type="car" route="route0" depart="36.10" /><vehicle id="veh322" type="car" route="route0" depart="36.27" /><vehicle id="veh324" type="car" route="route0" depart="36.33" /><vehicle id="veh325" type="car" route="route0" depart="36.37" /><vehicle id="veh328" type="car" route="route0" depart="36.77" /><vehicle id="veh330" type="car" route="route0" depart="37.17" /><vehicle id="veh331" type="car" route="route0" depart="37.20" /><vehicle id="veh333" type="car" route="route0" depart="37.33" /><vehicle id="veh334" type="car" route="route0" depart="37.33" /><vehicle id="veh336" type="car" route="route0" depart="37.43" /><vehicle id="veh338" type="car" route="route0" depart="37.57" /><vehicle id="veh343" type="car" route="route0" depart="37.90" /><vehicle id="veh346" type="car" route="route0" depart="38.07" /><vehicle id="veh349" type="car" route="route0" depart="38.67" /><vehicle id="veh352" type="car" route="route0" depart="38.77" /><vehicle id="veh353" type="car" route="route0" depart="38.77" /><vehicle id="veh355" type="car" route="route0" depart="38.77" /><vehicle id="veh363" type="car" route="route0" depart="39.60" /><vehicle id="veh370" type="car" route="route0" depart="39.70" /><vehicle id="veh372" type="car" route="route0" depart="39.73" /><vehicle id="veh376" type="car" route="route0" depart="39.97" /><vehicle id="veh375" type="car" route="route0" depart="40.23" /><vehicle id="veh382" type="car" route="route0" depart="40.83" /><vehicle id="veh388" type="car" route="route0" depart="41.60" /><vehicle id="veh393" type="car" route="route0" depart="41.80" /><vehicle id="veh398" type="car" route="route0" depart="42.67" /><vehicle id="veh402" type="car" route="route0" depart="42.83" /><vehicle id="veh403" type="car" route="route0" depart="42.87" /><vehicle id="veh406" type="car" route="route0" depart="43.67" /><vehicle id="veh407" type="car" route="route0" depart="43.70" /><vehicle id="veh408" type="car" route="route0" depart="43.90" /><vehicle id="veh420" type="car" route="route0" depart="45.87" /><vehicle id="veh422" type="car" route="route0" depart="46.03" /><vehicle id="veh430" type="car" route="route0" depart="46.63" /><vehicle id="veh441" type="car" route="route0" depart="47.90" /><vehicle id="veh443" type="car" route="route0" depart="48.00" /><vehicle id="veh444" type="car" route="route0" depart="48.00" /><vehicle id="veh446" type="car" route="route0" depart="48.03" /><vehicle id="veh451" type="car" route="route0" depart="48.73" /><vehicle id="veh452" type="car" route="route0" depart="48.73" /><vehicle id="veh453" type="car" route="route0" depart="48.73" /><vehicle id="veh457" type="car" route="route0" depart="49.13" /><vehicle id="veh458" type="car" route="route0" depart="49.43" /><vehicle id="veh466" type="car" route="route0" depart="49.63" /><vehicle id="veh468" type="car" route="route0" depart="49.70" /><vehicle id="veh473" type="car" route="route0" depart="50.83" /><vehicle id="veh474" type="car" route="route0" depart="51.20" /><vehicle id="veh475" type="car" route="route0" depart="51.20" /><vehicle id="veh476" type="car" route="route0" depart="52.03" /><vehicle id="veh478" type="car" route="route0" depart="53.03" /><vehicle id="veh479" type="car" route="route0" depart="53.33" /><vehicle id="veh480" type="car" route="route0" depart="57.60" /><vehicle id="veh481" type="car" route="route0" depart="57.97" /><vehicle id="veh482" type="car" route="route0" depart="58.67" /><vehicle id="veh483" type="car" route="route0" depart="58.67" /><vehicle id="veh484" type="car" route="route0" depart="59.73" /><vehicle id="veh485" type="car" route="route0" depart="61.33" /><vehicle id="veh489" type="car" route="route0" depart="61.63" /><vehicle id="veh490" type="car" route="route0" depart="61.67" /><vehicle id="veh491" type="car" route="route0" depart="61.77" /><vehicle id="veh494" type="car" route="route0" depart="62.23" /><vehicle id="veh498" type="car" route="route0" depart="62.47" /><vehicle id="veh499" type="car" route="route0" depart="62.53" /><vehicle id="veh500" type="car" route="route0" depart="62.70" /><vehicle id="veh502" type="car" route="route0" depart="63.03" /><vehicle id="veh504" type="car" route="route0" depart="63.37" /><vehicle id="veh508" type="car" route="route0" depart="63.80" /><vehicle id="veh509" type="car" route="route0" depart="64.00" /><vehicle id="veh510" type="car" route="route0" depart="64.10" /><vehicle id="veh514" type="car" route="route0" depart="65.07" /><vehicle id="veh515" type="car" route="route0" depart="65.17" /><vehicle id="veh516" type="car" route="route0" depart="66.13" /><vehicle id="veh517" type="car" route="route0" depart="66.67" /><vehicle id="veh519" type="car" route="route0" depart="67.63" /><vehicle id="veh521" type="car" route="route0" depart="67.70" /><vehicle id="veh522" type="car" route="route0" depart="67.70" /><vehicle id="veh524" type="car" route="route0" depart="68.30" /><vehicle id="veh526" type="car" route="route0" depart="68.63" /><vehicle id="veh527" type="car" route="route0" depart="68.63" /><vehicle id="veh528" type="car" route="route0" depart="68.73" /><vehicle id="veh535" type="car" route="route0" depart="69.30" /><vehicle id="veh537" type="car" route="route0" depart="69.33" /><vehicle id="veh541" type="car" route="route0" depart="69.80" /><vehicle id="veh545" type="car" route="route0" depart="70.03" /><vehicle id="veh550" type="car" route="route0" depart="71.40" /><vehicle id="veh551" type="car" route="route0" depart="71.60" /><vehicle id="veh552" type="car" route="route0" depart="71.73" /><vehicle id="veh560" type="car" route="route0" depart="72.33" /><vehicle id="veh562" type="car" route="route0" depart="72.43" /><vehicle id="veh569" type="car" route="route0" depart="72.77" /><vehicle id="veh573" type="truck" route="route0" depart="73.00" /><vehicle id="veh579" type="car" route="route0" depart="73.47" /><vehicle id="veh586" type="car" route="route0" depart="73.93" /><vehicle id="veh591" type="car" route="route0" depart="74.27" /><vehicle id="veh592" type="car" route="route0" depart="74.27" /><vehicle id="veh593" type="truck" route="route0" depart="74.53" /><vehicle id="veh594" type="car" route="route0" depart="74.60" /><vehicle id="veh595" type="car" route="route0" depart="74.60" /><vehicle id="veh596" type="car" route="route0" depart="74.73" /><vehicle id="veh599" type="car" route="route0" depart="75.07" /><vehicle id="veh600" type="car" route="route0" depart="75.10" /><vehicle id="veh602" type="truck" route="route0" depart="75.37" /><vehicle id="veh604" type="car" route="route0" depart="75.47" /><vehicle id="veh609" type="truck" route="route0" depart="76.10" /><vehicle id="veh614" type="truck" route="route0" depart="76.43" /><vehicle id="veh616" type="car" route="route0" depart="76.47" /><vehicle id="veh617" type="car" route="route0" depart="76.60" /><vehicle id="veh619" type="car" route="route0" depart="76.70" /><vehicle id="veh627" type="car" route="route0" depart="77.27" /><vehicle id="veh629" type="car" route="route0" depart="77.50" /><vehicle id="veh635" type="car" route="route0" depart="78.70" /><vehicle id="veh638" type="car" route="route0" depart="79.03" /><vehicle id="veh645" type="car" route="route0" depart="80.00" /><vehicle id="veh648" type="car" route="route0" depart="80.53" /><vehicle id="veh649" type="car" route="route0" depart="80.60" /><vehicle id="veh655" type="car" route="route0" depart="82.90" /><vehicle id="veh657" type="car" route="route0" depart="83.20" /><vehicle id="veh658" type="car" route="route0" depart="83.57" /><vehicle id="veh661" type="car" route="route0" depart="84.13" /><vehicle id="veh662" type="car" route="route0" depart="84.60" /><vehicle id="veh666" type="car" route="route0" depart="85.27" /><vehicle id="veh667" type="car" route="route0" depart="85.33" /><vehicle id="veh672" type="car" route="route0" depart="85.83" /><vehicle id="veh676" type="car" route="route0" depart="86.60" /><vehicle id="veh681" type="car" route="route0" depart="86.77" /><vehicle id="veh684" type="car" route="route0" depart="86.87" /><vehicle id="veh685" type="bus" route="route0" depart="86.90" /><vehicle id="veh688" type="truck" route="route0" depart="87.13" /><vehicle id="veh689" type="car" route="route0" depart="87.23" /><vehicle id="veh690" type="car" route="route0" depart="87.23" /><vehicle id="veh691" type="bus" route="route0" depart="87.30" /><vehicle id="veh694" type="car" route="route0" depart="87.40" /><vehicle id="veh696" type="car" route="route0" depart="87.47" /><vehicle id="veh699" type="car" route="route0" depart="87.57" /><vehicle id="veh701" type="car" route="route0" depart="87.60" /><vehicle id="veh707" type="car" route="route0" depart="87.80" /><vehicle id="veh716" type="car" route="route0" depart="88.33" /><vehicle id="veh724" type="car" route="route0" depart="88.97" /><vehicle id="veh731" type="car" route="route0" depart="89.60" /><vehicle id="veh732" type="car" route="route0" depart="89.60" /><vehicle id="veh733" type="bus" route="route0" depart="89.73" /><vehicle id="veh735" type="bus" route="route0" depart="90.00" /><vehicle id="veh738" type="car" route="route0" depart="90.47" /><vehicle id="veh742" type="car" route="route0" depart="90.57" /><vehicle id="veh751" type="car" route="route0" depart="91.00" /><vehicle id="veh752" type="car" route="route0" depart="91.03" /><vehicle id="veh754" type="car" route="route0" depart="91.10" /><vehicle id="veh757" type="car" route="route0" depart="91.23" /><vehicle id="veh761" type="car" route="route0" depart="91.37" /><vehicle id="veh762" type="car" route="route0" depart="91.43" /><vehicle id="veh763" type="car" route="route0" depart="91.47" /><vehicle id="veh765" type="car" route="route0" depart="91.53" /><vehicle id="veh766" type="car" route="route0" depart="91.53" /><vehicle id="veh767" type="car" route="route0" depart="91.53" /><vehicle id="veh770" type="car" route="route0" depart="91.67" /><vehicle id="veh774" type="car" route="route0" depart="91.87" /><vehicle id="veh776" type="car" route="route0" depart="92.00" /><vehicle id="veh778" type="car" route="route0" depart="92.07" /><vehicle id="veh788" type="car" route="route0" depart="92.47" /><vehicle id="veh794" type="car" route="route0" depart="92.63" /><vehicle id="veh798" type="car" route="route0" depart="92.80" /><vehicle id="veh801" type="truck" route="route0" depart="92.97" /><vehicle id="veh799" type="car" route="route0" depart="93.07" /><vehicle id="veh805" type="car" route="route0" depart="93.40" /><vehicle id="veh807" type="car" route="route0" depart="93.47" /><vehicle id="veh811" type="car" route="route0" depart="93.57" /><vehicle id="veh812" type="car" route="route0" depart="93.60" /><vehicle id="veh814" type="car" route="route0" depart="93.63" /><vehicle id="veh821" type="car" route="route0" depart="93.97" /><vehicle id="veh823" type="car" route="route0" depart="94.00" /><vehicle id="veh813" type="car" route="route0" depart="94.03" /><vehicle id="veh830" type="car" route="route0" depart="94.17" /><vehicle id="veh831" type="car" route="route0" depart="94.27" /><vehicle id="veh834" type="car" route="route0" depart="94.63" /><vehicle id="veh836" type="car" route="route0" depart="94.80" /><vehicle id="veh843" type="car" route="route0" depart="95.00" /><vehicle id="veh846" type="car" route="route0" depart="95.23" /><vehicle id="veh847" type="car" route="route0" depart="95.27" /><vehicle id="veh848" type="car" route="route0" depart="95.27" /><vehicle id="veh849" type="truck" route="route0" depart="95.40" /><vehicle id="veh851" type="truck" route="route0" depart="95.73" /><vehicle id="veh854" type="car" route="route0" depart="95.90" /><vehicle id="veh857" type="car" route="route0" depart="96.10" /><vehicle id="veh858" type="car" route="route0" depart="96.10" /><vehicle id="veh862" type="car" route="route0" depart="96.30" /><vehicle id="veh863" type="car" route="route0" depart="96.30" /><vehicle id="veh867" type="car" route="route0" depart="96.50" /><vehicle id="veh872" type="car" route="route0" depart="96.57" /><vehicle id="veh876" type="car" route="route0" depart="96.70" /><vehicle id="veh882" type="car" route="route0" depart="96.90" /><vehicle id="veh899" type="car" route="route0" depart="98.17" /><vehicle id="veh900" type="car" route="route0" depart="98.47" /><vehicle id="veh905" type="car" route="route0" depart="98.60" /><vehicle id="veh908" type="car" route="route0" depart="98.80" /><vehicle id="veh909" type="car" route="route0" depart="98.80" /><vehicle id="veh912" type="car" route="route0" depart="98.83" /><vehicle id="veh915" type="truck" route="route0" depart="98.97" /><vehicle id="veh916" type="car" route="route0" depart="98.97" /><vehicle id="veh918" type="car" route="route0" depart="99.27" /><vehicle id="veh921" type="car" route="route0" depart="99.97" /><vehicle id="veh923" type="car" route="route0" depart="99.97" /><vehicle id="veh927" type="car" route="route0" depart="100.37" /><vehicle id="veh928" type="car" route="route0" depart="100.37" /><vehicle id="veh929" type="car" route="route0" depart="100.40" /><vehicle id="veh933" type="car" route="route0" depart="100.83" /><vehicle id="veh940" type="truck" route="route0" depart="101.40" /><vehicle id="veh941" type="car" route="route0" depart="101.47" /><vehicle id="veh948" type="car" route="route0" depart="101.73" /><vehicle id="veh952" type="car" route="route0" depart="101.90" /><vehicle id="veh955" type="car" route="route0" depart="102.03" /><vehicle id="veh958" type="car" route="route0" depart="102.57" /><vehicle id="veh962" type="car" route="route0" depart="103.47" /><vehicle id="veh969" type="truck" route="route0" depart="104.00" /><vehicle id="veh971" type="car" route="route0" depart="104.13" /><vehicle id="veh991" type="car" route="route0" depart="106.20" /><vehicle id="veh992" type="truck" route="route0" depart="106.20" /><vehicle id="veh993" type="car" route="route0" depart="106.20" /><vehicle id="veh995" type="car" route="route0" depart="106.30" /><vehicle id="veh999" type="car" route="route0" depart="106.50" /><vehicle id="veh1000" type="truck" route="route0" depart="106.57" /><vehicle id="veh1007" type="truck" route="route0" depart="108.47" /></routes>