<?xml version="1.0" encoding="utf-8"?>
<routes>
	<vType id="vType_car_3.785100379552544" accel="1.0" decel="5.0" sigma="0.0" length="4.5" maxSpeed="1.0514167720979288" />
	<vType id="vType_car_3.9009295290247645" accel="1.0" decel="5.0" sigma="0.0" length="4.5" maxSpeed="1.0835915358402124" />
	<vType id="vType_car_4.0425641915544475" accel="1.0" decel="5.0" sigma="0.0" length="4.5" maxSpeed="1.1229344976540132" />
	<vType id="vType_car_3.820733104828776" accel="1.0" decel="5.0" sigma="0.0" length="4.5" maxSpeed="1.0613147513413266" />
	<vType id="vType_car_24.39968008539868" accel="1.0" decel="5.0" sigma="0.0" length="4.5" maxSpeed="6.777688912610744" />
	<vType id="vType_car_22.903696974095993" accel="1.0" decel="5.0" sigma="0.0" length="4.5" maxSpeed="6.362138048359998" />
	<vType id="vType_car_3.7851003795525426" accel="1.0" decel="5.0" sigma="0.0" length="4.5" maxSpeed="1.0514167720979284" />
	<vType id="vType_car_26.608203325713095" accel="1.0" decel="5.0" sigma="0.0" length="4.5" maxSpeed="7.39116759047586" />
	<vType id="vType_car_3.940808375561302" accel="1.0" decel="5.0" sigma="0.0" length="4.5" maxSpeed="1.0946689932114728" />
	<vType id="vType_car_17.96375393483673" accel="1.0" decel="5.0" sigma="0.0" length="4.5" maxSpeed="4.989931648565759" />
	<vType id="vType_car_21.39223006373476" accel="1.0" decel="5.0" sigma="0.0" length="4.5" maxSpeed="5.942286128815211" />
	<vType id="vType_car_17.90048960252824" accel="1.0" decel="5.0" sigma="0.0" length="4.5" maxSpeed="4.972358222924511" />
	<vType id="vType_car_4.525583381419918" accel="1.0" decel="5.0" sigma="0.0" length="4.5" maxSpeed="1.2571064948388662" />
	<vType id="vType_car_4.532002325511818" accel="1.0" decel="5.0" sigma="0.0" length="4.5" maxSpeed="1.2588895348643938" />
	<vType id="vType_car_23.09188774394192" accel="1.0" decel="5.0" sigma="0.0" length="4.5" maxSpeed="6.414413262206089" />
	<vType id="vType_car_3.6499182231399487" accel="1.0" decel="5.0" sigma="0.0" length="4.5" maxSpeed="1.0138661730944303" />
	<vType id="vType_car_27.9724457738271" accel="1.0" decel="5.0" sigma="0.0" length="4.5" maxSpeed="7.770123826063084" />
	<vType id="vType_car_25.660732310211774" accel="1.0" decel="5.0" sigma="0.0" length="4.5" maxSpeed="7.1279811972810485" />
	<vType id="vType_bus_31.234005855372118" accel="1.0" decel="5.0" sigma="0.0" length="13" maxSpeed="8.676112737603367" />
	<vType id="vType_car_34.96086715960233" accel="1.0" decel="5.0" sigma="0.0" length="4.5" maxSpeed="9.711351988778425" />
	<vType id="vType_car_32.01011469633235" accel="1.0" decel="5.0" sigma="0.0" length="4.5" maxSpeed="8.891698526758987" />
	<vType id="vType_car_32.23234700537085" accel="1.0" decel="5.0" sigma="0.0" length="4.5" maxSpeed="8.953429723714125" />
	<vType id="vType_car_3.8921408815435816" accel="1.0" decel="5.0" sigma="0.0" length="4.5" maxSpeed="1.081150244873217" />
	<vType id="vType_car_4.439601738308441" accel="1.0" decel="5.0" sigma="0.0" length="4.5" maxSpeed="1.2332227050856779" />
	<vType id="vType_car_5.20369922342269" accel="1.0" decel="5.0" sigma="0.0" length="4.5" maxSpeed="1.445472006506303" />
	<vType id="vType_car_17.194855032376932" accel="1.0" decel="5.0" sigma="0.0" length="4.5" maxSpeed="4.776348620104703" />
	<vType id="vType_car_35.63043462376965" accel="1.0" decel="5.0" sigma="0.0" length="4.5" maxSpeed="9.897342951047126" />
	<vType id="vType_car_25.147142897058547" accel="1.0" decel="5.0" sigma="0.0" length="4.5" maxSpeed="6.985317471405152" />
	<vType id="vType_car_37.718162457395444" accel="1.0" decel="5.0" sigma="0.0" length="4.5" maxSpeed="10.477267349276511" />
	<vType id="vType_car_29.03969576132656" accel="1.0" decel="5.0" sigma="0.0" length="4.5" maxSpeed="8.066582155924044" />
	<vType id="vType_car_27.7233516135946" accel="1.0" decel="5.0" sigma="0.0" length="4.5" maxSpeed="7.700931003776277" />
	<vType id="vType_car_8.463741750339734" accel="1.0" decel="5.0" sigma="0.0" length="4.5" maxSpeed="2.3510393750943703" />
	<vType id="vType_car_31.17417446904323" accel="1.0" decel="5.0" sigma="0.0" length="4.5" maxSpeed="8.659492908067564" />
	<vType id="vType_car_32.421235082544335" accel="1.0" decel="5.0" sigma="0.0" length="4.5" maxSpeed="9.005898634040093" />
	<vType id="vType_truck_4.67927474293582" accel="1.0" decel="5.0" sigma="0.0" length="8" maxSpeed="1.2997985397043943" />
	<vType id="vType_car_5.398723497439653" accel="1.0" decel="5.0" sigma="0.0" length="4.5" maxSpeed="1.4996454159554593" />
	<vType id="vType_bus_5.367336362696455" accel="1.0" decel="5.0" sigma="0.0" length="13" maxSpeed="1.4909267674156819" />
	<vType id="vType_car_25.074907296345376" accel="1.0" decel="5.0" sigma="0.0" length="4.5" maxSpeed="6.965252026762604" />
	<vType id="vType_car_12.857304569092761" accel="1.0" decel="5.0" sigma="0.0" length="4.5" maxSpeed="3.5714734914146558" />
	<vType id="vType_car_14.240538137982545" accel="1.0" decel="5.0" sigma="0.0" length="4.5" maxSpeed="3.955705038328485" />
	<vType id="vType_truck_4.569020335629645" accel="1.0" decel="5.0" sigma="0.0" length="8" maxSpeed="1.269172315452679" />
	<route id="route_north_to_east" edges="north_to_center center_to_east" />
	<route id="route_north_to_south" edges="north_to_center center_to_south" />
	<route id="route_north_to_west" edges="north_to_center center_to_west" />
	<route id="route_east_to_west" edges="east_to_center center_to_west" />
	<route id="route_east_to_south" edges="east_to_center center_to_south" />
	<route id="route_east_to_north" edges="east_to_center center_to_north" />
	<route id="route_south_to_west" edges="south_to_center center_to_west" />
	<route id="route_south_to_north" edges="south_to_center center_to_north" />
	<route id="route_south_to_east" edges="south_to_center center_to_east" />
	<route id="route_west_to_south" edges="west_to_center center_to_south" />
	<route id="route_west_to_north" edges="west_to_center center_to_north" />
	<route id="route_west_to_east" edges="west_to_center center_to_east" />
	<vehicle id="veh5" type="vType_car_24.39968008539868" route="route_south_to_north" depart="0.03" />
	<vehicle id="veh6" type="vType_car_22.903696974095993" route="route_south_to_north" depart="0.03" />
	<vehicle id="veh8" type="vType_car_26.608203325713095" route="route_north_to_south" depart="0.03" />
	<vehicle id="veh10" type="vType_car_17.96375393483673" route="route_north_to_south" depart="0.03" />
	<vehicle id="veh12" type="vType_car_17.90048960252824" route="route_north_to_west" depart="0.03" />
	<vehicle id="veh20" type="vType_car_23.09188774394192" route="route_south_to_east" depart="3.60" />
	<vehicle id="veh25" type="vType_car_27.9724457738271" route="route_south_to_north" depart="6.33" />
	<vehicle id="veh26" type="vType_car_25.660732310211774" route="route_north_to_south" depart="6.53" />
	<vehicle id="veh34" type="vType_car_34.96086715960233" route="route_south_to_north" depart="8.43" />
	<vehicle id="veh36" type="vType_car_32.23234700537085" route="route_south_to_north" depart="8.87" />
	<vehicle id="veh43" type="vType_car_35.63043462376965" route="route_south_to_north" depart="11.13" />
	<vehicle id="veh48" type="vType_car_37.718162457395444" route="route_south_to_north" depart="12.80" />
	<vehicle id="veh49" type="vType_car_29.03969576132656" route="route_north_to_south" depart="12.90" />
	<vehicle id="veh52" type="vType_car_27.7233516135946" route="route_south_to_north" depart="14.00" />
	<vehicle id="veh56" type="vType_car_31.17417446904323" route="route_north_to_south" depart="15.87" />
	<vehicle id="veh57" type="vType_car_32.421235082544335" route="route_south_to_north" depart="15.93" />
	<vehicle id="veh61" type="vType_car_25.074907296345376" route="route_north_to_south" depart="17.47" />
	<vehicle id="veh62" type="vType_car_12.857304569092761" route="route_north_to_west" depart="18.57" />
</routes>
