<?xml version='1.0' encoding='utf-8'?>
<routes><vType id="vType_car_98.93122676344416" accel="1.0" decel="5.0" sigma="0.0" length="4.5" maxSpeed="27.480896323178932" /><vType id="vType_car_4.021236000243101" accel="1.0" decel="5.0" sigma="0.0" length="4.5" maxSpeed="1.117010000067528" /><vType id="vType_car_56.71032124939359" accel="1.0" decel="5.0" sigma="0.0" length="4.5" maxSpeed="15.75286701372044" /><vType id="vType_car_36.295188767865156" accel="1.0" decel="5.0" sigma="0.0" length="4.5" maxSpeed="10.081996879962544" /><vType id="vType_car_51.19698904460695" accel="1.0" decel="5.0" sigma="0.0" length="4.5" maxSpeed="14.221385845724154" /><vType id="vType_car_43.12688982818534" accel="1.0" decel="5.0" sigma="0.0" length="4.5" maxSpeed="11.979691618940372" /><vType id="vType_bus_9.133288360997676" accel="1.0" decel="5.0" sigma="0.0" length="13" maxSpeed="2.537024544721577" /><vType id="vType_car_40.369535932017264" accel="1.0" decel="5.0" sigma="0.0" length="4.5" maxSpeed="11.213759981115906" /><vType id="vType_car_5.782041659070561" accel="1.0" decel="5.0" sigma="0.0" length="4.5" maxSpeed="1.6061226830751558" /><vType id="vType_car_6.730472670615789" accel="1.0" decel="5.0" sigma="0.0" length="4.5" maxSpeed="1.8695757418377192" /><vType id="vType_car_44.51417022322732" accel="1.0" decel="5.0" sigma="0.0" length="4.5" maxSpeed="12.36504728422981" /><vType id="vType_car_29.852849960649863" accel="1.0" decel="5.0" sigma="0.0" length="4.5" maxSpeed="8.292458322402739" /><vType id="vType_car_35.43928691319402" accel="1.0" decel="5.0" sigma="0.0" length="4.5" maxSpeed="9.844246364776115" /><vType id="vType_car_25.095673511571103" accel="1.0" decel="5.0" sigma="0.0" length="4.5" maxSpeed="6.971020419880862" /><vType id="vType_car_35.361460810381956" accel="1.0" decel="5.0" sigma="0.0" length="4.5" maxSpeed="9.822628002883876" /><vType id="vType_car_13.016861655389322" accel="1.0" decel="5.0" sigma="0.0" length="4.5" maxSpeed="3.6157949042748116" /><vType id="vType_car_22.170121678409124" accel="1.0" decel="5.0" sigma="0.0" length="4.5" maxSpeed="6.158367132891423" /><vType id="vType_car_6.741430742484435" accel="1.0" decel="5.0" sigma="0.0" length="4.5" maxSpeed="1.8726196506901207" /><vType id="vType_car_6.143162735870536" accel="1.0" decel="5.0" sigma="0.0" length="4.5" maxSpeed="1.7064340932973712" /><vType id="vType_car_4.936164557782861" accel="1.0" decel="5.0" sigma="0.0" length="4.5" maxSpeed="1.37115682160635" /><vType id="vType_truck_18.41203877982444" accel="1.0" decel="5.0" sigma="0.0" length="8" maxSpeed="5.114455216617899" /><vType id="vType_car_19.787820474320796" accel="1.0" decel="5.0" sigma="0.0" length="4.5" maxSpeed="5.496616798422443" /><vType id="vType_car_25.056606672054357" accel="1.0" decel="5.0" sigma="0.0" length="4.5" maxSpeed="6.960168520015099" /><vType id="vType_car_27.256849672107847" accel="1.0" decel="5.0" sigma="0.0" length="4.5" maxSpeed="7.571347131141069" /><vType id="vType_car_6.3727293782246575" accel="1.0" decel="5.0" sigma="0.0" length="4.5" maxSpeed="1.770202605062405" /><vType id="vType_car_4.870655473105672" accel="1.0" decel="5.0" sigma="0.0" length="4.5" maxSpeed="1.3529598536404646" /><vType id="vType_car_18.894714524602954" accel="1.0" decel="5.0" sigma="0.0" length="4.5" maxSpeed="5.248531812389709" /><vType id="vType_car_23.527436325074166" accel="1.0" decel="5.0" sigma="0.0" length="4.5" maxSpeed="6.535398979187268" /><vType id="vType_truck_34.334608926772894" accel="1.0" decel="5.0" sigma="0.0" length="8" maxSpeed="9.537391368548025" /><vType id="vType_car_5.652682980730366" accel="1.0" decel="5.0" sigma="0.0" length="4.5" maxSpeed="1.570189716869546" /><vType id="vType_car_13.994384707504294" accel="1.0" decel="5.0" sigma="0.0" length="4.5" maxSpeed="3.8873290854178593" /><vType id="vType_car_43.99284565564553" accel="1.0" decel="5.0" sigma="0.0" length="4.5" maxSpeed="12.22023490434598" /><vType id="vType_car_4.2757617438208495" accel="1.0" decel="5.0" sigma="0.0" length="4.5" maxSpeed="1.1877115955057915" /><vType id="vType_car_23.956898416724112" accel="1.0" decel="5.0" sigma="0.0" length="4.5" maxSpeed="6.654694004645586" /><vType id="vType_car_13.501635851695195" accel="1.0" decel="5.0" sigma="0.0" length="4.5" maxSpeed="3.750454403248665" /><vType id="vType_car_39.83458931953273" accel="1.0" decel="5.0" sigma="0.0" length="4.5" maxSpeed="11.065163699870203" /><vType id="vType_car_15.219741706102303" accel="1.0" decel="5.0" sigma="0.0" length="4.5" maxSpeed="4.227706029472862" /><vType id="vType_car_49.953267194486564" accel="1.0" decel="5.0" sigma="0.0" length="4.5" maxSpeed="13.875907554024046" /><vType id="vType_car_4.1501717113525" accel="1.0" decel="5.0" sigma="0.0" length="4.5" maxSpeed="1.1528254753756944" /><vType id="vType_car_19.422957919554626" accel="1.0" decel="5.0" sigma="0.0" length="4.5" maxSpeed="5.395266088765174" /><vType id="vType_car_47.5200103052104" accel="1.0" decel="5.0" sigma="0.0" length="4.5" maxSpeed="13.200002862558444" /><vType id="vType_car_29.726426645268234" accel="1.0" decel="5.0" sigma="0.0" length="4.5" maxSpeed="8.257340734796731" /><vType id="vType_car_53.03264385347886" accel="1.0" decel="5.0" sigma="0.0" length="4.5" maxSpeed="14.731289959299684" /><vType id="vType_car_18.72249976764992" accel="1.0" decel="5.0" sigma="0.0" length="4.5" maxSpeed="5.200694379902756" /><vType id="vType_car_90.42716611281065" accel="1.0" decel="5.0" sigma="0.0" length="4.5" maxSpeed="25.118657253558514" /><vType id="vType_car_11.870797531294784" accel="1.0" decel="5.0" sigma="0.0" length="4.5" maxSpeed="3.2974437586929954" /><vType id="vType_bus_11.953104234251251" accel="1.0" decel="5.0" sigma="0.0" length="13" maxSpeed="3.3203067317364585" /><vType id="vType_car_50.97168932897883" accel="1.0" decel="5.0" sigma="0.0" length="4.5" maxSpeed="14.158802591383008" /><vType id="vType_car_42.03065249229316" accel="1.0" decel="5.0" sigma="0.0" length="4.5" maxSpeed="11.67518124785921" /><vType id="vType_truck_69.64976944911346" accel="1.0" decel="5.0" sigma="0.0" length="8" maxSpeed="19.347158180309297" /><vType id="vType_car_33.32098942775192" accel="1.0" decel="5.0" sigma="0.0" length="4.5" maxSpeed="9.255830396597755" /><vType id="vType_car_3.646671453499705" accel="1.0" decel="5.0" sigma="0.0" length="4.5" maxSpeed="1.012964292638807" /><vType id="vType_car_18.686330408152102" accel="1.0" decel="5.0" sigma="0.0" length="4.5" maxSpeed="5.190647335597806" /><vType id="vType_bus_9.288161939959961" accel="1.0" decel="5.0" sigma="0.0" length="13" maxSpeed="2.580044983322211" /><vType id="vType_bus_17.933743242845416" accel="1.0" decel="5.0" sigma="0.0" length="13" maxSpeed="4.981595345234838" /><vType id="vType_bus_6.504294146399083" accel="1.0" decel="5.0" sigma="0.0" length="13" maxSpeed="1.8067483739997452" /><vType id="vType_car_50.1356371298547" accel="1.0" decel="5.0" sigma="0.0" length="4.5" maxSpeed="13.926565869404083" /><vType id="vType_car_26.623411558857253" accel="1.0" decel="5.0" sigma="0.0" length="4.5" maxSpeed="7.39539209968257" /><vType id="vType_car_84.0052533588493" accel="1.0" decel="5.0" sigma="0.0" length="4.5" maxSpeed="23.334792599680362" /><vType id="vType_car_21.531954284282612" accel="1.0" decel="5.0" sigma="0.0" length="4.5" maxSpeed="5.981098412300725" /><vType id="vType_car_59.22227612382238" accel="1.0" decel="5.0" sigma="0.0" length="4.5" maxSpeed="16.45063225661733" /><vType id="vType_car_15.514291842339514" accel="1.0" decel="5.0" sigma="0.0" length="4.5" maxSpeed="4.309525511760976" /><vType id="vType_car_4.120528072756838" accel="1.0" decel="5.0" sigma="0.0" length="4.5" maxSpeed="1.144591131321344" /><vType id="vType_car_25.41024336203399" accel="1.0" decel="5.0" sigma="0.0" length="4.5" maxSpeed="7.058400933898331" /><vType id="vType_car_42.11794188314611" accel="1.0" decel="5.0" sigma="0.0" length="4.5" maxSpeed="11.699428300873919" /><vType id="vType_car_26.016763013602596" accel="1.0" decel="5.0" sigma="0.0" length="4.5" maxSpeed="7.22687861488961" /><vType id="vType_car_24.046122772002008" accel="1.0" decel="5.0" sigma="0.0" length="4.5" maxSpeed="6.679478547778335" /><vType id="vType_car_22.102677618093594" accel="1.0" decel="5.0" sigma="0.0" length="4.5" maxSpeed="6.139632671692665" /><vType id="vType_car_26.685032347628724" accel="1.0" decel="5.0" sigma="0.0" length="4.5" maxSpeed="7.412508985452423" /><vType id="vType_truck_12.191591239092817" accel="1.0" decel="5.0" sigma="0.0" length="8" maxSpeed="3.386553121970227" /><vType id="vType_car_40.78716788818054" accel="1.0" decel="5.0" sigma="0.0" length="4.5" maxSpeed="11.329768857827927" /><vType id="vType_car_14.428827446430295" accel="1.0" decel="5.0" sigma="0.0" length="4.5" maxSpeed="4.008007624008416" /><vType id="vType_car_18.59653127834327" accel="1.0" decel="5.0" sigma="0.0" length="4.5" maxSpeed="5.165703132873131" /><vType id="vType_truck_8.487357619295057" accel="1.0" decel="5.0" sigma="0.0" length="8" maxSpeed="2.3575993386930714" /><vType id="vType_car_26.845303308800922" accel="1.0" decel="5.0" sigma="0.0" length="4.5" maxSpeed="7.457028696889145" /><vType id="vType_car_17.696253397692875" accel="1.0" decel="5.0" sigma="0.0" length="4.5" maxSpeed="4.915625943803576" /><vType id="vType_car_23.90145156140368" accel="1.0" decel="5.0" sigma="0.0" length="4.5" maxSpeed="6.639292100389911" /><vType id="vType_car_22.991231626121884" accel="1.0" decel="5.0" sigma="0.0" length="4.5" maxSpeed="6.386453229478301" /><vType id="vType_car_20.30404544011985" accel="1.0" decel="5.0" sigma="0.0" length="4.5" maxSpeed="5.640012622255514" /><vType id="vType_car_19.005119239482926" accel="1.0" decel="5.0" sigma="0.0" length="4.5" maxSpeed="5.279199788745257" /><vType id="vType_car_21.642439483962292" accel="1.0" decel="5.0" sigma="0.0" length="4.5" maxSpeed="6.011788745545081" /><vType id="vType_car_22.586037549734158" accel="1.0" decel="5.0" sigma="0.0" length="4.5" maxSpeed="6.273899319370599" /><vType id="vType_car_7.39270092384104" accel="1.0" decel="5.0" sigma="0.0" length="4.5" maxSpeed="2.053528034400289" /><vType id="vType_car_22.94187930369087" accel="1.0" decel="5.0" sigma="0.0" length="4.5" maxSpeed="6.372744251025242" /><vType id="vType_car_4.05348438639461" accel="1.0" decel="5.0" sigma="0.0" length="4.5" maxSpeed="1.1259678851096138" /><vType id="vType_car_17.355697748565824" accel="1.0" decel="5.0" sigma="0.0" length="4.5" maxSpeed="4.821027152379395" /><vType id="vType_car_4.926009930844056" accel="1.0" decel="5.0" sigma="0.0" length="4.5" maxSpeed="1.3683360919011265" /><vType id="vType_truck_71.02237009052816" accel="1.0" decel="5.0" sigma="0.0" length="8" maxSpeed="19.72843613625782" /><vType id="vType_car_21.172553936096328" accel="1.0" decel="5.0" sigma="0.0" length="4.5" maxSpeed="5.88126498224898" /><vType id="vType_car_25.953435255357338" accel="1.0" decel="5.0" sigma="0.0" length="4.5" maxSpeed="7.209287570932593" /><vType id="vType_car_19.920953835076872" accel="1.0" decel="5.0" sigma="0.0" length="4.5" maxSpeed="5.533598287521353" /><vType id="vType_car_9.052001939807445" accel="1.0" decel="5.0" sigma="0.0" length="4.5" maxSpeed="2.5144449832798457" /><vType id="vType_car_33.601385719429736" accel="1.0" decel="5.0" sigma="0.0" length="4.5" maxSpeed="9.333718255397148" /><vType id="vType_car_51.355452803114844" accel="1.0" decel="5.0" sigma="0.0" length="4.5" maxSpeed="14.26540355642079" /><vType id="vType_car_5.041647670298289" accel="1.0" decel="5.0" sigma="0.0" length="4.5" maxSpeed="1.4004576861939693" /><vType id="vType_truck_2.2679813674019496" accel="1.0" decel="5.0" sigma="0.0" length="8" maxSpeed="0.6299948242783193" /><vType id="vType_car_25.502365762357485" accel="1.0" decel="5.0" sigma="0.0" length="4.5" maxSpeed="7.083990489543746" /><vType id="vType_car_25.82389072732066" accel="1.0" decel="5.0" sigma="0.0" length="4.5" maxSpeed="7.173302979811294" /><vType id="vType_car_36.94942380243736" accel="1.0" decel="5.0" sigma="0.0" length="4.5" maxSpeed="10.263728834010378" /><vType id="vType_car_23.614951066106308" accel="1.0" decel="5.0" sigma="0.0" length="4.5" maxSpeed="6.559708629473974" /><vType id="vType_car_10.23979476333335" accel="1.0" decel="5.0" sigma="0.0" length="4.5" maxSpeed="2.844387434259264" /><vType id="vType_car_38.052957887622085" accel="1.0" decel="5.0" sigma="0.0" length="4.5" maxSpeed="10.570266079895024" /><vType id="vType_car_12.988275715826587" accel="1.0" decel="5.0" sigma="0.0" length="4.5" maxSpeed="3.6078543655073854" /><vType id="vType_car_46.71759495444846" accel="1.0" decel="5.0" sigma="0.0" length="4.5" maxSpeed="12.977109709569016" /><vType id="vType_car_11.889904200737483" accel="1.0" decel="5.0" sigma="0.0" length="4.5" maxSpeed="3.302751166871523" /><vType id="vType_car_5.529069045725758" accel="1.0" decel="5.0" sigma="0.0" length="4.5" maxSpeed="1.5358525127015994" /><vType id="vType_car_13.218725844758866" accel="1.0" decel="5.0" sigma="0.0" length="4.5" maxSpeed="3.671868290210796" /><vType id="vType_truck_3.6466714534997062" accel="1.0" decel="5.0" sigma="0.0" length="8" maxSpeed="1.0129642926388072" /><vType id="vType_truck_27.498891540169073" accel="1.0" decel="5.0" sigma="0.0" length="8" maxSpeed="7.638580983380297" /><vType id="vType_car_18.12624750100552" accel="1.0" decel="5.0" sigma="0.0" length="4.5" maxSpeed="5.035068750279311" /><vType id="vType_car_16.30841052326661" accel="1.0" decel="5.0" sigma="0.0" length="4.5" maxSpeed="4.530114034240724" /><vType id="vType_car_32.70528161040484" accel="1.0" decel="5.0" sigma="0.0" length="4.5" maxSpeed="9.084800447334677" /><vType id="vType_car_14.323139023363975" accel="1.0" decel="5.0" sigma="0.0" length="4.5" maxSpeed="3.9786497287122153" /><vType id="vType_car_14.946762649273792" accel="1.0" decel="5.0" sigma="0.0" length="4.5" maxSpeed="4.151878513687164" /><vType id="vType_car_12.628016806047293" accel="1.0" decel="5.0" sigma="0.0" length="4.5" maxSpeed="3.507782446124248" /><vType id="vType_car_28.11194516078335" accel="1.0" decel="5.0" sigma="0.0" length="4.5" maxSpeed="7.808873655773152" /><vType id="vType_car_80.04989770692924" accel="1.0" decel="5.0" sigma="0.0" length="4.5" maxSpeed="22.236082696369234" /><vType id="vType_car_68.38771131628472" accel="1.0" decel="5.0" sigma="0.0" length="4.5" maxSpeed="18.996586476745755" /><vType id="vType_bus_89.35793132367883" accel="1.0" decel="5.0" sigma="0.0" length="13" maxSpeed="24.821647589910786" /><vType id="vType_car_35.60506488306981" accel="1.0" decel="5.0" sigma="0.0" length="4.5" maxSpeed="9.890295800852725" /><vType id="vType_car_42.22907617480547" accel="1.0" decel="5.0" sigma="0.0" length="4.5" maxSpeed="11.730298937445964" /><vType id="vType_truck_77.98725704250363" accel="1.0" decel="5.0" sigma="0.0" length="8" maxSpeed="21.66312695625101" /><vType id="vType_car_109.26462995704507" accel="1.0" decel="5.0" sigma="0.0" length="4.5" maxSpeed="30.351286099179188" /><vType id="vType_car_44.94217154722931" accel="1.0" decel="5.0" sigma="0.0" length="4.5" maxSpeed="12.48393654089703" /><vType id="vType_car_85.7548232905721" accel="1.0" decel="5.0" sigma="0.0" length="4.5" maxSpeed="23.82078424738114" /><vType id="vType_car_9.490003878118763" accel="1.0" decel="5.0" sigma="0.0" length="4.5" maxSpeed="2.636112188366323" /><vType id="vType_car_11.403306603629987" accel="1.0" decel="5.0" sigma="0.0" length="4.5" maxSpeed="3.1675851676749964" /><vType id="vType_car_9.220710875545967" accel="1.0" decel="5.0" sigma="0.0" length="4.5" maxSpeed="2.5613085765405463" /><vType id="vType_car_34.64267880060503" accel="1.0" decel="5.0" sigma="0.0" length="4.5" maxSpeed="9.622966333501397" /><vType id="vType_car_9.305218295891171" accel="1.0" decel="5.0" sigma="0.0" length="4.5" maxSpeed="2.5847828599697698" /><vType id="vType_car_26.435077651770047" accel="1.0" decel="5.0" sigma="0.0" length="4.5" maxSpeed="7.343077125491679" /><vType id="vType_car_13.504824933781359" accel="1.0" decel="5.0" sigma="0.0" length="4.5" maxSpeed="3.751340259383711" /><vType id="vType_car_12.507501155139998" accel="1.0" decel="5.0" sigma="0.0" length="4.5" maxSpeed="3.474305876427777" /><vType id="vType_car_51.98582514040373" accel="1.0" decel="5.0" sigma="0.0" length="4.5" maxSpeed="14.44050698344548" /><vType id="vType_car_3.745182373514379" accel="1.0" decel="5.0" sigma="0.0" length="4.5" maxSpeed="1.0403284370873276" /><vType id="vType_car_21.474297212418488" accel="1.0" decel="5.0" sigma="0.0" length="4.5" maxSpeed="5.965082559005135" /><vType id="vType_car_14.262985584556855" accel="1.0" decel="5.0" sigma="0.0" length="4.5" maxSpeed="3.961940440154682" /><vType id="vType_car_20.340259149777832" accel="1.0" decel="5.0" sigma="0.0" length="4.5" maxSpeed="5.650071986049398" /><vType id="vType_car_21.657666048326146" accel="1.0" decel="5.0" sigma="0.0" length="4.5" maxSpeed="6.016018346757263" /><vType id="vType_car_29.713694631684984" accel="1.0" decel="5.0" sigma="0.0" length="4.5" maxSpeed="8.25380406435694" /><vType id="vType_car_27.20988656010716" accel="1.0" decel="5.0" sigma="0.0" length="4.5" maxSpeed="7.558301822251989" /><vType id="vType_car_31.512579404135916" accel="1.0" decel="5.0" sigma="0.0" length="4.5" maxSpeed="8.753494278926643" /><vType id="vType_car_27.20583052743078" accel="1.0" decel="5.0" sigma="0.0" length="4.5" maxSpeed="7.55717514650855" /><vType id="vType_car_36.356847471028914" accel="1.0" decel="5.0" sigma="0.0" length="4.5" maxSpeed="10.099124297508032" /><vType id="vType_car_28.56883466588502" accel="1.0" decel="5.0" sigma="0.0" length="4.5" maxSpeed="7.935787407190284" /><vType id="vType_car_27.108383906821082" accel="1.0" decel="5.0" sigma="0.0" length="4.5" maxSpeed="7.530106640783634" /><vType id="vType_car_7.151236627957101" accel="1.0" decel="5.0" sigma="0.0" length="4.5" maxSpeed="1.9864546188769725" /><vType id="vType_car_38.61022746576729" accel="1.0" decel="5.0" sigma="0.0" length="4.5" maxSpeed="10.725063184935358" /><vType id="vType_car_20.179897640364807" accel="1.0" decel="5.0" sigma="0.0" length="4.5" maxSpeed="5.605527122323557" /><vType id="vType_car_35.908705369240714" accel="1.0" decel="5.0" sigma="0.0" length="4.5" maxSpeed="9.974640380344642" /><vType id="vType_car_6.78130517004362" accel="1.0" decel="5.0" sigma="0.0" length="4.5" maxSpeed="1.883695880567672" /><vType id="vType_car_22.40866036006756" accel="1.0" decel="5.0" sigma="0.0" length="4.5" maxSpeed="6.224627877796545" /><vType id="vType_car_9.159877125583781" accel="1.0" decel="5.0" sigma="0.0" length="4.5" maxSpeed="2.5444103126621616" /><route id="route_north_to_south" edges="north_to_center center_to_south" /><route id="route_south_to_north" edges="south_to_center center_to_north" /><vehicle id="veh3" type="vType_car_56.71032124939359" route="route_north_to_south" depart="0.03" /><vehicle id="veh5" type="vType_car_36.295188767865156" route="route_north_to_south" depart="2.70" /><vehicle id="veh6" type="vType_car_51.19698904460695" route="route_north_to_south" depart="3.30" /><vehicle id="veh7" type="vType_car_43.12688982818534" route="route_north_to_south" depart="5.03" /><vehicle id="veh10" type="vType_car_40.369535932017264" route="route_north_to_south" depart="10.40" /><vehicle id="veh14" type="vType_car_44.51417022322732" route="route_north_to_south" depart="12.70" /><vehicle id="veh17" type="vType_car_29.852849960649863" route="route_north_to_south" depart="15.20" /><vehicle id="veh18" type="vType_car_35.43928691319402" route="route_north_to_south" depart="17.43" /><vehicle id="veh19" type="vType_car_25.095673511571103" route="route_north_to_south" depart="17.43" /><vehicle id="veh51" type="vType_car_35.361460810381956" route="route_north_to_south" depart="17.43" /><vehicle id="veh87" type="vType_car_18.72249976764992" route="route_north_to_south" depart="77.87" /><vehicle id="veh95" type="vType_car_50.97168932897883" route="route_south_to_north" depart="97.50" /><vehicle id="veh108" type="vType_bus_17.933743242845416" route="route_north_to_south" depart="125.47" /><vehicle id="veh133" type="vType_car_15.514291842339514" route="route_south_to_north" depart="130.87" /><vehicle id="veh154" type="vType_car_42.11794188314611" route="route_north_to_south" depart="130.87" /><vehicle id="veh155" type="vType_car_26.016763013602596" route="route_north_to_south" depart="130.87" /><vehicle id="veh160" type="vType_car_26.685032347628724" route="route_north_to_south" depart="132.73" /><vehicle id="veh166" type="vType_car_40.78716788818054" route="route_north_to_south" depart="136.70" /><vehicle id="veh169" type="vType_car_18.59653127834327" route="route_south_to_north" depart="139.57" /><vehicle id="veh172" type="vType_car_26.845303308800922" route="route_south_to_north" depart="147.53" /><vehicle id="veh179" type="vType_car_22.991231626121884" route="route_south_to_north" depart="160.60" /><vehicle id="veh181" type="vType_car_19.005119239482926" route="route_north_to_south" depart="166.00" /><vehicle id="veh213" type="vType_car_19.920953835076872" route="route_north_to_south" depart="190.80" /><vehicle id="veh214" type="vType_car_33.601385719429736" route="route_south_to_north" depart="190.80" /><vehicle id="veh219" type="vType_car_51.355452803114844" route="route_south_to_north" depart="191.87" /><vehicle id="veh232" type="vType_car_46.71759495444846" route="route_south_to_north" depart="197.33" /><vehicle id="veh241" type="vType_car_18.12624750100552" route="route_south_to_north" depart="211.00" /><vehicle id="veh247" type="vType_car_14.946762649273792" route="route_south_to_north" depart="217.80" /><vehicle id="veh267" type="vType_car_34.64267880060503" route="route_north_to_south" depart="238.03" /><vehicle id="veh273" type="vType_car_51.98582514040373" route="route_north_to_south" depart="240.33" /><vehicle id="veh279" type="vType_car_21.474297212418488" route="route_north_to_south" depart="240.33" /><vehicle id="veh281" type="vType_car_21.657666048326146" route="route_south_to_north" depart="241.37" /><vehicle id="veh285" type="vType_car_29.713694631684984" route="route_north_to_south" depart="242.57" /><vehicle id="veh290" type="vType_car_31.512579404135916" route="route_south_to_north" depart="243.30" /><vehicle id="veh291" type="vType_car_27.20583052743078" route="route_north_to_south" depart="243.30" /><vehicle id="veh298" type="vType_car_28.56883466588502" route="route_south_to_north" depart="244.83" /><vehicle id="veh300" type="vType_car_27.108383906821082" route="route_north_to_south" depart="246.40" /><vehicle id="veh302" type="vType_car_38.61022746576729" route="route_north_to_south" depart="246.80" /><vehicle id="veh303" type="vType_car_20.179897640364807" route="route_north_to_south" depart="248.63" /><vehicle id="veh306" type="vType_car_35.908705369240714" route="route_north_to_south" depart="250.93" /></routes>