<?xml version='1.0' encoding='utf-8'?>
<routes><vType id="vType_car_3.8504270425589646" accel="1.0" decel="5.0" sigma="0.0" length="4.5" maxSpeed="1.06956306737749" /><vType id="vType_car_3.873181273493787" accel="1.0" decel="5.0" sigma="0.0" length="4.5" maxSpeed="1.0758836870816075" /><vType id="vType_car_4.005195809608522" accel="1.0" decel="5.0" sigma="0.0" length="4.5" maxSpeed="1.1125543915579228" /><vType id="vType_car_3.8754048488718493" accel="1.0" decel="5.0" sigma="0.0" length="4.5" maxSpeed="1.076501346908847" /><vType id="vType_car_24.340797911855436" accel="1.0" decel="5.0" sigma="0.0" length="4.5" maxSpeed="6.761332753293177" /><vType id="vType_car_23.02062279254755" accel="1.0" decel="5.0" sigma="0.0" length="4.5" maxSpeed="6.394617442374319" /><vType id="vType_car_3.7851003795525395" accel="1.0" decel="5.0" sigma="0.0" length="4.5" maxSpeed="1.0514167720979277" /><vType id="vType_car_27.38919282149459" accel="1.0" decel="5.0" sigma="0.0" length="4.5" maxSpeed="7.60810911708183" /><vType id="vType_car_4.0100032176902864" accel="1.0" decel="5.0" sigma="0.0" length="4.5" maxSpeed="1.1138897826917462" /><vType id="vType_car_18.124039654043248" accel="1.0" decel="5.0" sigma="0.0" length="4.5" maxSpeed="5.034455459456457" /><vType id="vType_car_21.363731001970468" accel="1.0" decel="5.0" sigma="0.0" length="4.5" maxSpeed="5.934369722769574" /><vType id="vType_car_17.242658093135518" accel="1.0" decel="5.0" sigma="0.0" length="4.5" maxSpeed="4.7896272480932" /><vType id="vType_car_4.479693135989622" accel="1.0" decel="5.0" sigma="0.0" length="4.5" maxSpeed="1.2443592044415617" /><vType id="vType_car_4.472595187720678" accel="1.0" decel="5.0" sigma="0.0" length="4.5" maxSpeed="1.2423875521446328" /><vType id="vType_car_24.099919883143105" accel="1.0" decel="5.0" sigma="0.0" length="4.5" maxSpeed="6.694422189761974" /><vType id="vType_car_24.782633221093413" accel="1.0" decel="5.0" sigma="0.0" length="4.5" maxSpeed="6.884064783637059" /><vType id="vType_car_3.785100379552539" accel="1.0" decel="5.0" sigma="0.0" length="4.5" maxSpeed="1.0514167720979275" /><vType id="vType_car_27.976216102553582" accel="1.0" decel="5.0" sigma="0.0" length="4.5" maxSpeed="7.771171139598217" /><vType id="vType_bus_31.420876341723233" accel="1.0" decel="5.0" sigma="0.0" length="13" maxSpeed="8.728021206034231" /><vType id="vType_car_34.165575518824866" accel="1.0" decel="5.0" sigma="0.0" length="4.5" maxSpeed="9.490437644118018" /><vType id="vType_car_31.35694317306205" accel="1.0" decel="5.0" sigma="0.0" length="4.5" maxSpeed="8.710261992517236" /><vType id="vType_car_32.59879189854378" accel="1.0" decel="5.0" sigma="0.0" length="4.5" maxSpeed="9.055219971817717" /><vType id="vType_car_3.901732493110851" accel="1.0" decel="5.0" sigma="0.0" length="4.5" maxSpeed="1.0838145814196807" /><vType id="vType_car_4.275951858207363" accel="1.0" decel="5.0" sigma="0.0" length="4.5" maxSpeed="1.1877644050576008" /><vType id="vType_car_5.12504912042891" accel="1.0" decel="5.0" sigma="0.0" length="4.5" maxSpeed="1.4236247556746973" /><vType id="vType_car_17.110620481153454" accel="1.0" decel="5.0" sigma="0.0" length="4.5" maxSpeed="4.752950133653737" /><vType id="vType_car_35.68964491602375" accel="1.0" decel="5.0" sigma="0.0" length="4.5" maxSpeed="9.913790254451042" /><vType id="vType_car_32.560664633317444" accel="1.0" decel="5.0" sigma="0.0" length="4.5" maxSpeed="9.044629064810401" /><vType id="vType_car_38.10703646317228" accel="1.0" decel="5.0" sigma="0.0" length="4.5" maxSpeed="10.585287906436744" /><vType id="vType_car_29.01302442132712" accel="1.0" decel="5.0" sigma="0.0" length="4.5" maxSpeed="8.059173450368645" /><vType id="vType_car_27.555567422149426" accel="1.0" decel="5.0" sigma="0.0" length="4.5" maxSpeed="7.654324283930396" /><vType id="vType_car_5.433903493563277" accel="1.0" decel="5.0" sigma="0.0" length="4.5" maxSpeed="1.5094176371009103" /><vType id="vType_car_30.919065777518313" accel="1.0" decel="5.0" sigma="0.0" length="4.5" maxSpeed="8.588629382643976" /><vType id="vType_car_32.506145117413766" accel="1.0" decel="5.0" sigma="0.0" length="4.5" maxSpeed="9.029484754837156" /><vType id="vType_truck_4.654360906889293" accel="1.0" decel="5.0" sigma="0.0" length="8" maxSpeed="1.2928780296914704" /><vType id="vType_bus_3.785100379552539" accel="1.0" decel="5.0" sigma="0.0" length="13" maxSpeed="1.0514167720979275" /><vType id="vType_car_24.288374771189172" accel="1.0" decel="5.0" sigma="0.0" length="4.5" maxSpeed="6.74677076977477" /><vType id="vType_car_12.304757472926353" accel="1.0" decel="5.0" sigma="0.0" length="4.5" maxSpeed="3.4179881869239868" /><vType id="vType_car_14.529891488645438" accel="1.0" decel="5.0" sigma="0.0" length="4.5" maxSpeed="4.036080969068177" /><vType id="vType_truck_3.785100379552539" accel="1.0" decel="5.0" sigma="0.0" length="8" maxSpeed="1.0514167720979275" /><route id="route_north_to_south" edges="north_to_center center_to_south" /><route id="route_south_to_north" edges="south_to_center center_to_north" /><vehicle id="veh5" type="vType_car_24.340797911855436" route="route_south_to_north" depart="0.03" /><vehicle id="veh6" type="vType_car_23.02062279254755" route="route_south_to_north" depart="0.03" /><vehicle id="veh8" type="vType_car_27.38919282149459" route="route_north_to_south" depart="0.03" /><vehicle id="veh10" type="vType_car_18.124039654043248" route="route_north_to_south" depart="0.03" /><vehicle id="veh23" type="vType_car_24.782633221093413" route="route_north_to_south" depart="5.43" /><vehicle id="veh25" type="vType_car_27.976216102553582" route="route_south_to_north" depart="6.33" /><vehicle id="veh30" type="vType_car_34.165575518824866" route="route_south_to_north" depart="8.43" /><vehicle id="veh32" type="vType_car_32.59879189854378" route="route_south_to_north" depart="8.87" /><vehicle id="veh38" type="vType_car_35.68964491602375" route="route_south_to_north" depart="11.13" /><vehicle id="veh47" type="vType_car_38.10703646317228" route="route_south_to_north" depart="12.80" /><vehicle id="veh48" type="vType_car_29.01302442132712" route="route_north_to_south" depart="12.90" /><vehicle id="veh50" type="vType_car_27.555567422149426" route="route_south_to_north" depart="14.00" /><vehicle id="veh53" type="vType_car_30.919065777518313" route="route_north_to_south" depart="15.87" /><vehicle id="veh54" type="vType_car_32.506145117413766" route="route_south_to_north" depart="15.93" /><vehicle id="veh57" type="vType_car_24.288374771189172" route="route_north_to_south" depart="17.47" /></routes>