<?xml version='1.0' encoding='utf-8'?>
<routes><vType id="car" accel="1.0" decel="5.0" sigma="0.0" length="5" maxSpeed="33.33" /><vType id="bus" accel="1.0" decel="5.0" sigma="0.0" length="15" maxSpeed="3.33" /><vType id="truck" accel="1.0" decel="5.0" sigma="0.0" length="10" maxSpeed="20" /><route id="route_north_to_east" edges="north_to_center center_to_east" /><route id="route_north_to_south" edges="north_to_center center_to_south" /><route id="route_north_to_west" edges="north_to_center center_to_west" /><route id="route_east_to_west" edges="east_to_center center_to_west" /><route id="route_east_to_south" edges="east_to_center center_to_south" /><route id="route_east_to_north" edges="east_to_center center_to_north" /><route id="route_south_to_west" edges="south_to_center center_to_west" /><route id="route_south_to_north" edges="south_to_center center_to_north" /><route id="route_south_to_east" edges="south_to_center center_to_east" /><route id="route_west_to_south" edges="west_to_center center_to_south" /><route id="route_west_to_north" edges="west_to_center center_to_north" /><route id="route_west_to_east" edges="west_to_center center_to_east" /><vehicle id="veh1" type="car" route="route_north_to_east" depart="0.03" /><vehicle id="veh2" type="car" route="route_north_to_east" depart="0.03" /><vehicle id="veh3" type="car" route="route_north_to_east" depart="0.03" /><vehicle id="veh4" type="car" route="route_north_to_east" depart="0.03" /><vehicle id="veh5" type="car" route="route_north_to_east" depart="0.03" /><vehicle id="veh6" type="car" route="route_north_to_east" depart="0.03" /><vehicle id="veh7" type="car" route="route_north_to_east" depart="0.03" /><vehicle id="veh8" type="car" route="route_north_to_east" depart="0.03" /><vehicle id="veh9" type="car" route="route_north_to_east" depart="0.03" /><vehicle id="veh10" type="car" route="route_north_to_east" depart="0.03" /><vehicle id="veh11" type="car" route="route_north_to_east" depart="0.03" /><vehicle id="veh12" type="car" route="route_north_to_east" depart="0.03" /><vehicle id="veh13" type="car" route="route_north_to_east" depart="0.03" /><vehicle id="veh14" type="car" route="route_north_to_east" depart="0.03" /><vehicle id="veh16" type="car" route="route_north_to_east" depart="0.33" /><vehicle id="veh18" type="car" route="route_north_to_east" depart="0.70" /><vehicle id="veh19" type="car" route="route_north_to_east" depart="0.87" /><vehicle id="veh22" type="car" route="route_north_to_east" depart="1.30" /><vehicle id="veh24" type="car" route="route_north_to_east" depart="1.30" /><vehicle id="veh25" type="car" route="route_north_to_east" depart="1.33" /><vehicle id="veh52" type="car" route="route_north_to_east" depart="2.07" /><vehicle id="veh66" type="car" route="route_north_to_east" depart="3.00" /><vehicle id="veh72" type="car" route="route_north_to_east" depart="3.37" /><vehicle id="veh91" type="car" route="route_north_to_east" depart="4.10" /><vehicle id="veh98" type="truck" route="route_north_to_east" depart="4.27" /><vehicle id="veh120" type="truck" route="route_north_to_east" depart="4.70" /><vehicle id="veh133" type="truck" route="route_north_to_east" depart="5.37" /><vehicle id="veh167" type="car" route="route_north_to_east" depart="6.73" /><vehicle id="veh154" type="car" route="route_north_to_east" depart="6.97" /><vehicle id="veh179" type="truck" route="route_north_to_east" depart="7.20" /><vehicle id="veh182" type="car" route="route_north_to_east" depart="7.33" /><vehicle id="veh187" type="truck" route="route_north_to_east" depart="7.87" /><vehicle id="veh198" type="car" route="route_north_to_east" depart="8.27" /><vehicle id="veh199" type="car" route="route_north_to_east" depart="8.43" /><vehicle id="veh204" type="car" route="route_north_to_east" depart="8.57" /><vehicle id="veh218" type="car" route="route_north_to_east" depart="9.07" /><vehicle id="veh220" type="car" route="route_north_to_east" depart="9.13" /><vehicle id="veh251" type="car" route="route_north_to_east" depart="9.77" /><vehicle id="veh296" type="car" route="route_north_to_east" depart="10.73" /><vehicle id="veh306" type="car" route="route_north_to_east" depart="10.87" /><vehicle id="veh313" type="car" route="route_north_to_east" depart="11.00" /><vehicle id="veh314" type="car" route="route_north_to_east" depart="11.10" /><vehicle id="veh316" type="car" route="route_north_to_east" depart="11.27" /><vehicle id="veh320" type="car" route="route_north_to_east" depart="11.57" /><vehicle id="veh340" type="car" route="route_north_to_east" depart="12.10" /><vehicle id="veh341" type="car" route="route_north_to_east" depart="12.20" /><vehicle id="veh342" type="car" route="route_north_to_east" depart="12.27" /><vehicle id="veh360" type="car" route="route_north_to_east" depart="13.03" /><vehicle id="veh362" type="car" route="route_north_to_east" depart="13.07" /><vehicle id="veh364" type="car" route="route_north_to_east" depart="13.27" /><vehicle id="veh372" type="car" route="route_north_to_east" depart="13.97" /><vehicle id="veh387" type="car" route="route_north_to_east" depart="14.40" /><vehicle id="veh396" type="car" route="route_north_to_east" depart="14.93" /><vehicle id="veh398" type="car" route="route_north_to_east" depart="14.97" /><vehicle id="veh405" type="car" route="route_north_to_east" depart="16.00" /><vehicle id="veh431" type="car" route="route_north_to_east" depart="19.30" /><vehicle id="veh444" type="car" route="route_north_to_east" depart="19.60" /><vehicle id="veh446" type="car" route="route_north_to_east" depart="19.67" /><vehicle id="veh463" type="car" route="route_north_to_east" depart="20.10" /><vehicle id="veh464" type="car" route="route_north_to_east" depart="20.13" /><vehicle id="veh468" type="car" route="route_north_to_east" depart="20.80" /><vehicle id="veh490" type="car" route="route_north_to_east" depart="21.90" /><vehicle id="veh506" type="car" route="route_north_to_east" depart="22.53" /><vehicle id="veh514" type="car" route="route_north_to_east" depart="23.27" /><vehicle id="veh516" type="car" route="route_north_to_east" depart="23.30" /><vehicle id="veh522" type="car" route="route_north_to_east" depart="23.50" /><vehicle id="veh530" type="car" route="route_north_to_east" depart="23.70" /><vehicle id="veh533" type="car" route="route_north_to_east" depart="23.80" /><vehicle id="veh541" type="car" route="route_north_to_east" depart="24.77" /><vehicle id="veh547" type="car" route="route_north_to_east" depart="25.37" /><vehicle id="veh571" type="car" route="route_north_to_east" depart="26.70" /><vehicle id="veh579" type="car" route="route_north_to_east" depart="27.00" /><vehicle id="veh598" type="bus" route="route_north_to_east" depart="28.57" /><vehicle id="veh604" type="truck" route="route_north_to_east" depart="29.23" /><vehicle id="veh605" type="truck" route="route_north_to_east" depart="29.33" /><vehicle id="veh606" type="car" route="route_north_to_east" depart="29.60" /><vehicle id="veh607" type="bus" route="route_north_to_east" depart="29.83" /><vehicle id="veh623" type="car" route="route_north_to_east" depart="30.47" /><vehicle id="veh643" type="car" route="route_north_to_east" depart="31.13" /><vehicle id="veh681" type="car" route="route_north_to_east" depart="32.03" /><vehicle id="veh699" type="car" route="route_north_to_east" depart="32.40" /><vehicle id="veh701" type="car" route="route_north_to_east" depart="32.43" /><vehicle id="veh702" type="truck" route="route_north_to_east" depart="32.43" /><vehicle id="veh721" type="bus" route="route_north_to_east" depart="33.10" /><vehicle id="veh725" type="car" route="route_north_to_east" depart="33.20" /><vehicle id="veh739" type="car" route="route_north_to_east" depart="33.97" /><vehicle id="veh742" type="car" route="route_north_to_east" depart="34.07" /><vehicle id="veh748" type="car" route="route_north_to_east" depart="34.17" /><vehicle id="veh762" type="car" route="route_north_to_east" depart="34.47" /><vehicle id="veh769" type="car" route="route_north_to_east" depart="34.63" /><vehicle id="veh778" type="car" route="route_north_to_east" depart="35.20" /><vehicle id="veh783" type="car" route="route_north_to_east" depart="35.37" /><vehicle id="veh787" type="car" route="route_north_to_east" depart="35.47" /><vehicle id="veh791" type="car" route="route_north_to_east" depart="35.50" /><vehicle id="veh804" type="car" route="route_north_to_east" depart="35.67" /><vehicle id="veh805" type="car" route="route_north_to_east" depart="35.67" /><vehicle id="veh807" type="car" route="route_north_to_east" depart="35.70" /><vehicle id="veh816" type="car" route="route_north_to_east" depart="35.97" /><vehicle id="veh823" type="car" route="route_north_to_east" depart="36.07" /><vehicle id="veh831" type="car" route="route_north_to_east" depart="36.27" /><vehicle id="veh841" type="car" route="route_north_to_east" depart="36.67" /><vehicle id="veh852" type="car" route="route_north_to_east" depart="37.17" /><vehicle id="veh854" type="car" route="route_north_to_east" depart="37.17" /><vehicle id="veh865" type="car" route="route_north_to_east" depart="37.37" /><vehicle id="veh870" type="car" route="route_north_to_east" depart="37.53" /><vehicle id="veh871" type="car" route="route_north_to_east" depart="37.57" /><vehicle id="veh884" type="car" route="route_north_to_east" depart="38.07" /><vehicle id="veh902" type="car" route="route_north_to_east" depart="38.77" /><vehicle id="veh903" type="car" route="route_north_to_east" depart="38.77" /><vehicle id="veh907" type="car" route="route_north_to_east" depart="38.93" /><vehicle id="veh922" type="car" route="route_north_to_east" depart="39.57" /><vehicle id="veh924" type="car" route="route_north_to_east" depart="39.60" /><vehicle id="veh940" type="car" route="route_north_to_east" depart="39.93" /><vehicle id="veh939" type="car" route="route_north_to_east" depart="40.13" /><vehicle id="veh959" type="car" route="route_north_to_east" depart="40.77" /><vehicle id="veh961" type="car" route="route_north_to_east" depart="40.83" /><vehicle id="veh962" type="car" route="route_north_to_east" depart="40.83" /><vehicle id="veh964" type="car" route="route_north_to_east" depart="41.07" /><vehicle id="veh971" type="car" route="route_north_to_east" depart="41.57" /><vehicle id="veh980" type="car" route="route_north_to_east" depart="41.70" /><vehicle id="veh995" type="car" route="route_north_to_east" depart="42.67" /><vehicle id="veh1008" type="car" route="route_north_to_east" depart="42.83" /><vehicle id="veh1010" type="car" route="route_north_to_east" depart="42.87" /><vehicle id="veh1011" type="car" route="route_north_to_east" depart="43.27" /><vehicle id="veh1017" type="car" route="route_north_to_east" depart="43.70" /><vehicle id="veh1021" type="car" route="route_north_to_east" depart="43.90" /><vehicle id="veh1027" type="car" route="route_north_to_east" depart="45.10" /><vehicle id="veh1032" type="car" route="route_north_to_east" depart="45.57" /><vehicle id="veh1046" type="car" route="route_north_to_east" depart="46.03" /><vehicle id="veh1060" type="car" route="route_north_to_east" depart="46.17" /><vehicle id="veh1068" type="car" route="route_north_to_east" depart="46.63" /><vehicle id="veh1076" type="car" route="route_north_to_east" depart="47.17" /><vehicle id="veh1085" type="car" route="route_north_to_east" depart="47.87" /><vehicle id="veh1090" type="car" route="route_north_to_east" depart="47.97" /><vehicle id="veh1093" type="car" route="route_north_to_east" depart="48.03" /><vehicle id="veh1104" type="car" route="route_north_to_east" depart="48.53" /><vehicle id="veh1114" type="car" route="route_north_to_east" depart="48.83" /><vehicle id="veh1122" type="car" route="route_north_to_east" depart="49.43" /><vehicle id="veh1141" type="car" route="route_north_to_east" depart="50.80" /><vehicle id="veh1142" type="car" route="route_north_to_east" depart="51.20" /><vehicle id="veh1147" type="car" route="route_north_to_east" depart="52.03" /><vehicle id="veh1154" type="car" route="route_north_to_east" depart="53.03" /><vehicle id="veh1178" type="car" route="route_north_to_east" depart="61.33" /><vehicle id="veh1182" type="car" route="route_north_to_east" depart="61.63" /><vehicle id="veh1183" type="car" route="route_north_to_east" depart="61.77" /><vehicle id="veh1200" type="car" route="route_north_to_east" depart="62.43" /><vehicle id="veh1202" type="car" route="route_north_to_east" depart="63.33" /><vehicle id="veh1206" type="car" route="route_north_to_east" depart="63.80" /><vehicle id="veh1207" type="car" route="route_north_to_east" depart="64.10" /><vehicle id="veh1242" type="car" route="route_north_to_east" depart="66.13" /><vehicle id="veh1255" type="car" route="route_north_to_east" depart="67.63" /><vehicle id="veh1262" type="car" route="route_north_to_east" depart="68.30" /><vehicle id="veh1265" type="car" route="route_north_to_east" depart="68.60" /><vehicle id="veh1269" type="car" route="route_north_to_east" depart="68.73" /><vehicle id="veh1282" type="car" route="route_north_to_east" depart="69.27" /><vehicle id="veh1283" type="car" route="route_north_to_east" depart="69.30" /><vehicle id="veh1295" type="car" route="route_north_to_east" depart="69.77" /><vehicle id="veh1298" type="car" route="route_north_to_east" depart="69.83" /><vehicle id="veh1300" type="car" route="route_north_to_east" depart="70.13" /><vehicle id="veh1310" type="car" route="route_north_to_east" depart="71.27" /><vehicle id="veh1313" type="car" route="route_north_to_east" depart="71.57" /><vehicle id="veh1316" type="car" route="route_north_to_east" depart="71.73" /><vehicle id="veh1330" type="car" route="route_north_to_east" depart="72.43" /><vehicle id="veh1332" type="car" route="route_north_to_east" depart="72.47" /><vehicle id="veh1338" type="car" route="route_north_to_east" depart="72.67" /><vehicle id="veh1343" type="truck" route="route_north_to_east" depart="73.00" /><vehicle id="veh1345" type="car" route="route_north_to_east" depart="73.03" /><vehicle id="veh1352" type="car" route="route_north_to_east" depart="73.47" /><vehicle id="veh1362" type="car" route="route_north_to_east" depart="73.93" /><vehicle id="veh1364" type="bus" route="route_north_to_east" depart="74.00" /><vehicle id="veh1373" type="car" route="route_north_to_east" depart="74.27" /><vehicle id="veh1382" type="truck" route="route_north_to_east" depart="74.53" /><vehicle id="veh1385" type="car" route="route_north_to_east" depart="74.60" /><vehicle id="veh1387" type="car" route="route_north_to_east" depart="74.73" /><vehicle id="veh1405" type="car" route="route_north_to_east" depart="75.07" /><vehicle id="veh1408" type="car" route="route_north_to_east" depart="75.10" /><vehicle id="veh1421" type="truck" route="route_north_to_east" depart="75.37" /><vehicle id="veh1424" type="car" route="route_north_to_east" depart="75.47" /><vehicle id="veh1437" type="truck" route="route_north_to_east" depart="76.10" /><vehicle id="veh1443" type="car" route="route_north_to_east" depart="76.30" /><vehicle id="veh1445" type="truck" route="route_north_to_east" depart="76.43" /><vehicle id="veh1447" type="truck" route="route_north_to_east" depart="76.57" /><vehicle id="veh1451" type="car" route="route_north_to_east" depart="76.70" /><vehicle id="veh1455" type="car" route="route_north_to_east" depart="76.87" /><vehicle id="veh1456" type="car" route="route_north_to_east" depart="76.90" /><vehicle id="veh1462" type="truck" route="route_north_to_east" depart="77.07" /><vehicle id="veh1464" type="car" route="route_north_to_east" depart="77.13" /><vehicle id="veh1473" type="car" route="route_north_to_east" depart="77.90" /><vehicle id="veh1480" type="car" route="route_north_to_east" depart="78.20" /><vehicle id="veh1482" type="car" route="route_north_to_east" depart="78.27" /><vehicle id="veh1483" type="car" route="route_north_to_east" depart="78.70" /><vehicle id="veh1489" type="car" route="route_north_to_east" depart="79.03" /><vehicle id="veh1492" type="car" route="route_north_to_east" depart="79.50" /><vehicle id="veh1521" type="car" route="route_north_to_east" depart="80.50" /><vehicle id="veh1523" type="car" route="route_north_to_east" depart="80.60" /><vehicle id="veh1534" type="car" route="route_north_to_east" depart="84.57" /><vehicle id="veh1542" type="car" route="route_north_to_east" depart="85.83" /><vehicle id="veh1544" type="car" route="route_north_to_east" depart="85.87" /><vehicle id="veh1551" type="car" route="route_north_to_east" depart="86.60" /><vehicle id="veh1554" type="truck" route="route_north_to_east" depart="86.63" /><vehicle id="veh1558" type="car" route="route_north_to_east" depart="86.87" /><vehicle id="veh1561" type="bus" route="route_north_to_east" depart="87.03" /><vehicle id="veh1565" type="car" route="route_north_to_east" depart="87.23" /><vehicle id="veh1566" type="car" route="route_north_to_east" depart="87.23" /><vehicle id="veh1571" type="car" route="route_north_to_east" depart="87.37" /><vehicle id="veh1575" type="car" route="route_north_to_east" depart="87.47" /><vehicle id="veh1577" type="car" route="route_north_to_east" depart="87.57" /><vehicle id="veh1588" type="car" route="route_north_to_east" depart="87.80" /><vehicle id="veh1594" type="car" route="route_north_to_east" depart="87.93" /><vehicle id="veh1600" type="car" route="route_north_to_east" depart="88.33" /><vehicle id="veh1603" type="car" route="route_north_to_east" depart="89.07" /><vehicle id="veh1609" type="car" route="route_north_to_east" depart="89.60" /><vehicle id="veh1596" type="truck" route="route_north_to_east" depart="89.73" /><vehicle id="veh1613" type="bus" route="route_north_to_east" depart="89.73" /><vehicle id="veh1624" type="car" route="route_north_to_east" depart="90.47" /><vehicle id="veh1630" type="car" route="route_north_to_east" depart="90.57" /><vehicle id="veh1632" type="car" route="route_north_to_east" depart="90.60" /><vehicle id="veh1631" type="car" route="route_north_to_east" depart="90.63" /><vehicle id="veh1638" type="car" route="route_north_to_east" depart="90.80" /><vehicle id="veh1643" type="car" route="route_north_to_east" depart="91.07" /><vehicle id="veh1645" type="car" route="route_north_to_east" depart="91.23" /><vehicle id="veh1648" type="car" route="route_north_to_east" depart="91.43" /><vehicle id="veh1655" type="car" route="route_north_to_east" depart="91.53" /><vehicle id="veh1665" type="car" route="route_north_to_east" depart="92.07" /><vehicle id="veh1666" type="car" route="route_north_to_east" depart="92.07" /><vehicle id="veh1680" type="truck" route="route_north_to_east" depart="92.37" /><vehicle id="veh1683" type="car" route="route_north_to_east" depart="92.40" /><vehicle id="veh1689" type="car" route="route_north_to_east" depart="92.53" /><vehicle id="veh1700" type="bus" route="route_north_to_east" depart="92.87" /><vehicle id="veh1699" type="car" route="route_north_to_east" depart="93.07" /><vehicle id="veh1720" type="car" route="route_north_to_east" depart="93.37" /><vehicle id="veh1723" type="car" route="route_north_to_east" depart="93.40" /><vehicle id="veh1725" type="car" route="route_north_to_east" depart="93.43" /><vehicle id="veh1731" type="car" route="route_north_to_east" depart="93.57" /><vehicle id="veh1733" type="car" route="route_north_to_east" depart="93.60" /><vehicle id="veh1749" type="car" route="route_north_to_east" depart="93.97" /><vehicle id="veh1754" type="car" route="route_north_to_east" depart="94.00" /><vehicle id="veh1734" type="car" route="route_north_to_east" depart="94.03" /><vehicle id="veh1765" type="car" route="route_north_to_east" depart="94.17" /><vehicle id="veh1772" type="car" route="route_north_to_east" depart="94.63" /><vehicle id="veh1779" type="car" route="route_north_to_east" depart="94.80" /><vehicle id="veh1783" type="car" route="route_north_to_east" depart="94.83" /><vehicle id="veh1792" type="car" route="route_north_to_east" depart="95.00" /><vehicle id="veh1799" type="car" route="route_north_to_east" depart="95.17" /><vehicle id="veh1801" type="car" route="route_north_to_east" depart="95.23" /><vehicle id="veh1811" type="truck" route="route_north_to_east" depart="95.73" /><vehicle id="veh1818" type="car" route="route_north_to_east" depart="96.10" /><vehicle id="veh1819" type="car" route="route_north_to_east" depart="96.10" /><vehicle id="veh1826" type="car" route="route_north_to_east" depart="96.30" /><vehicle id="veh1828" type="truck" route="route_north_to_east" depart="96.40" /><vehicle id="veh1832" type="car" route="route_north_to_east" depart="96.50" /><vehicle id="veh1833" type="car" route="route_north_to_east" depart="96.53" /><vehicle id="veh1837" type="car" route="route_north_to_east" depart="96.57" /><vehicle id="veh1850" type="car" route="route_north_to_east" depart="96.80" /><vehicle id="veh1854" type="car" route="route_north_to_east" depart="96.90" /><vehicle id="veh1862" type="car" route="route_north_to_east" depart="97.07" /><vehicle id="veh1882" type="car" route="route_north_to_east" depart="97.53" /><vehicle id="veh1914" type="car" route="route_north_to_east" depart="98.33" /><vehicle id="veh1924" type="car" route="route_north_to_east" depart="98.50" /><vehicle id="veh1928" type="car" route="route_north_to_east" depart="98.60" /><vehicle id="veh1933" type="car" route="route_north_to_east" depart="98.80" /><vehicle id="veh1940" type="truck" route="route_north_to_east" depart="98.97" /><vehicle id="veh1953" type="car" route="route_north_to_east" depart="99.27" /><vehicle id="veh1971" type="car" route="route_north_to_east" depart="99.97" /><vehicle id="veh1974" type="car" route="route_north_to_east" depart="100.30" /><vehicle id="veh1977" type="car" route="route_north_to_east" depart="100.33" /><vehicle id="veh1980" type="car" route="route_north_to_east" depart="100.37" /><vehicle id="veh1981" type="car" route="route_north_to_east" depart="100.37" /><vehicle id="veh2001" type="truck" route="route_north_to_east" depart="101.40" /><vehicle id="veh2007" type="car" route="route_north_to_east" depart="101.57" /><vehicle id="veh2008" type="car" route="route_north_to_east" depart="101.60" /><vehicle id="veh2015" type="car" route="route_north_to_east" depart="101.87" /><vehicle id="veh2020" type="car" route="route_north_to_east" depart="102.03" /><vehicle id="veh2032" type="car" route="route_north_to_east" depart="102.57" /><vehicle id="veh2056" type="car" route="route_north_to_east" depart="103.47" /><vehicle id="veh2072" type="truck" route="route_north_to_east" depart="104.00" /><vehicle id="veh2079" type="car" route="route_north_to_east" depart="104.10" /><vehicle id="veh2082" type="car" route="route_north_to_east" depart="104.13" /><vehicle id="veh2097" type="car" route="route_north_to_east" depart="104.73" /><vehicle id="veh2114" type="truck" route="route_north_to_east" depart="106.17" /><vehicle id="veh2116" type="car" route="route_north_to_east" depart="106.17" /><vehicle id="veh2117" type="truck" route="route_north_to_east" depart="106.20" /><vehicle id="veh2122" type="car" route="route_north_to_east" depart="106.27" /><vehicle id="veh2129" type="car" route="route_north_to_east" depart="106.40" /><vehicle id="veh2133" type="truck" route="route_north_to_east" depart="106.53" /><vehicle id="veh2157" type="truck" route="route_north_to_east" depart="108.47" /></routes>