<?xml version='1.0' encoding='utf-8'?>
<routes><vType id="vType_1.9763482040338496" accel="1.0" decel="5.0" sigma="0.0" length="5" maxSpeed="0.5489856122316249" /><vType id="vType_2.6650175339986824" accel="1.0" decel="5.0" sigma="0.0" length="5" maxSpeed="0.7402826483329673" /><vType id="vType_2.536926203011937" accel="1.0" decel="5.0" sigma="0.0" length="5" maxSpeed="0.7047017230588714" /><vType id="vType_3.1742113450951766" accel="1.0" decel="5.0" sigma="0.0" length="5" maxSpeed="0.881725373637549" /><vType id="vType_4.258340746612162" accel="1.0" decel="5.0" sigma="0.0" length="5" maxSpeed="1.1828724296144895" /><vType id="vType_3.9788413202211323" accel="1.0" decel="5.0" sigma="0.0" length="5" maxSpeed="1.1052337000614256" /><vType id="vType_3.383652708476673" accel="1.0" decel="5.0" sigma="0.0" length="5" maxSpeed="0.9399035301324091" /><vType id="vType_3.5351212044884646" accel="1.0" decel="5.0" sigma="0.0" length="5" maxSpeed="0.9819781123579068" /><vType id="vType_8.130144749856699" accel="1.0" decel="5.0" sigma="0.0" length="5" maxSpeed="2.258373541626861" /><vType id="vType_9.262312807308378" accel="1.0" decel="5.0" sigma="0.0" length="5" maxSpeed="2.5728646686967718" /><vType id="vType_2.961577435000951" accel="1.0" decel="5.0" sigma="0.0" length="5" maxSpeed="0.8226603986113752" /><vType id="vType_12.561982304618" accel="1.0" decel="5.0" sigma="0.0" length="5" maxSpeed="3.4894395290605558" /><vType id="vType_5.174944244561987" accel="1.0" decel="5.0" sigma="0.0" length="5" maxSpeed="1.4374845123783295" /><vType id="vType_14.69801251641709" accel="1.0" decel="5.0" sigma="0.0" length="5" maxSpeed="4.082781254560303" /><vType id="vType_6.040949711994803" accel="1.0" decel="5.0" sigma="0.0" length="5" maxSpeed="1.678041586665223" /><vType id="vType_11.88780717935478" accel="1.0" decel="5.0" sigma="0.0" length="5" maxSpeed="3.3021686609318834" /><vType id="vType_11.37519667599456" accel="1.0" decel="5.0" sigma="0.0" length="5" maxSpeed="3.159776854442933" /><vType id="vType_9.551580160220885" accel="1.0" decel="5.0" sigma="0.0" length="5" maxSpeed="2.653216711172468" /><vType id="vType_19.33602049975867" accel="1.0" decel="5.0" sigma="0.0" length="5" maxSpeed="5.37111680548852" /><vType id="vType_12.787000305974079" accel="1.0" decel="5.0" sigma="0.0" length="5" maxSpeed="3.551944529437244" /><vType id="vType_21.564954031906804" accel="1.0" decel="5.0" sigma="0.0" length="5" maxSpeed="5.990265008863001" /><vType id="vType_20.574733332538262" accel="1.0" decel="5.0" sigma="0.0" length="5" maxSpeed="5.7152037034828505" /><vType id="vType_16.43129006098634" accel="1.0" decel="5.0" sigma="0.0" length="5" maxSpeed="4.564247239162872" /><vType id="vType_21.86720740196109" accel="1.0" decel="5.0" sigma="0.0" length="5" maxSpeed="6.074224278322524" /><vType id="vType_22.278773879793654" accel="1.0" decel="5.0" sigma="0.0" length="5" maxSpeed="6.188548299942681" /><vType id="vType_5.682948987659444" accel="1.0" decel="5.0" sigma="0.0" length="5" maxSpeed="1.5785969410165122" /><vType id="vType_27.800237886768556" accel="1.0" decel="5.0" sigma="0.0" length="5" maxSpeed="7.7222883018801545" /><vType id="vType_26.6293651321008" accel="1.0" decel="5.0" sigma="0.0" length="5" maxSpeed="7.397045870028" /><vType id="vType_29.19285951333539" accel="1.0" decel="5.0" sigma="0.0" length="5" maxSpeed="8.109127642593164" /><vType id="vType_26.60394162290408" accel="1.0" decel="5.0" sigma="0.0" length="5" maxSpeed="7.389983784140022" /><vType id="vType_6.860333548876923" accel="1.0" decel="5.0" sigma="0.0" length="5" maxSpeed="1.9056482080213675" /><vType id="vType_29.050040460904498" accel="1.0" decel="5.0" sigma="0.0" length="5" maxSpeed="8.069455683584582" /><vType id="vType_30.06803119325807" accel="1.0" decel="5.0" sigma="0.0" length="5" maxSpeed="8.35223088701613" /><vType id="vType_34.146020894526046" accel="1.0" decel="5.0" sigma="0.0" length="5" maxSpeed="9.485005804035012" /><vType id="vType_6.757716848065563" accel="1.0" decel="5.0" sigma="0.0" length="5" maxSpeed="1.8771435689071008" /><vType id="vType_36.75129239331019" accel="1.0" decel="5.0" sigma="0.0" length="5" maxSpeed="10.208692331475051" /><vType id="vType_36.52694983295535" accel="1.0" decel="5.0" sigma="0.0" length="5" maxSpeed="10.14637495359871" /><vType id="vType_7.452505826707053" accel="1.0" decel="5.0" sigma="0.0" length="5" maxSpeed="2.070140507418626" /><vType id="vType_31.894274010854552" accel="1.0" decel="5.0" sigma="0.0" length="5" maxSpeed="8.85952055857071" /><vType id="vType_37.29110209930889" accel="1.0" decel="5.0" sigma="0.0" length="5" maxSpeed="10.358639472030246" /><vType id="vType_40.25349441492136" accel="1.0" decel="5.0" sigma="0.0" length="5" maxSpeed="11.181526226367046" /><vType id="vType_7.6027814547631465" accel="1.0" decel="5.0" sigma="0.0" length="5" maxSpeed="2.111883737434207" /><vType id="vType_43.218886074412964" accel="1.0" decel="5.0" sigma="0.0" length="5" maxSpeed="12.005246131781378" /><vType id="vType_2.578533752019226" accel="1.0" decel="5.0" sigma="0.0" length="5" maxSpeed="0.7162593755608961" /><vType id="vType_38.711804609286375" accel="1.0" decel="5.0" sigma="0.0" length="5" maxSpeed="10.753279058135105" /><vType id="vType_46.70985355243786" accel="1.0" decel="5.0" sigma="0.0" length="5" maxSpeed="12.974959320121629" /><vType id="vType_46.39980784811815" accel="1.0" decel="5.0" sigma="0.0" length="5" maxSpeed="12.888835513366153" /><vType id="vType_9.164271183216925" accel="1.0" decel="5.0" sigma="0.0" length="5" maxSpeed="2.5456308842269237" /><vType id="vType_9.166235877182906" accel="1.0" decel="5.0" sigma="0.0" length="5" maxSpeed="2.5461766325508073" /><vType id="vType_46.98254782495165" accel="1.0" decel="5.0" sigma="0.0" length="5" maxSpeed="13.050707729153237" /><vType id="vType_10.500470157009978" accel="1.0" decel="5.0" sigma="0.0" length="5" maxSpeed="2.916797265836105" /><vType id="vType_10.218697180951004" accel="1.0" decel="5.0" sigma="0.0" length="5" maxSpeed="2.8385269947086122" /><vType id="vType_10.776949362285585" accel="1.0" decel="5.0" sigma="0.0" length="5" maxSpeed="2.993597045079329" /><vType id="vType_54.03189681871262" accel="1.0" decel="5.0" sigma="0.0" length="5" maxSpeed="15.008860227420172" /><vType id="vType_54.75498489210949" accel="1.0" decel="5.0" sigma="0.0" length="5" maxSpeed="15.20971802558597" /><vType id="vType_11.306082992117034" accel="1.0" decel="5.0" sigma="0.0" length="5" maxSpeed="3.1405786089213983" /><vType id="vType_11.545863236429796" accel="1.0" decel="5.0" sigma="0.0" length="5" maxSpeed="3.2071842323416098" /><vType id="vType_10.73205737150468" accel="1.0" decel="5.0" sigma="0.0" length="5" maxSpeed="2.981127047640189" /><vType id="vType_52.586632955336555" accel="1.0" decel="5.0" sigma="0.0" length="5" maxSpeed="14.607398043149043" /><vType id="vType_11.954311089334595" accel="1.0" decel="5.0" sigma="0.0" length="5" maxSpeed="3.3206419692596096" /><vType id="vType_54.31469453899368" accel="1.0" decel="5.0" sigma="0.0" length="5" maxSpeed="15.087415149720465" /><vType id="vType_62.71222882342139" accel="1.0" decel="5.0" sigma="0.0" length="5" maxSpeed="17.420063562061497" /><vType id="vType_62.4459965083225" accel="1.0" decel="5.0" sigma="0.0" length="5" maxSpeed="17.346110141200693" /><vType id="vType_0.18010632272904206" accel="1.0" decel="5.0" sigma="0.0" length="5" maxSpeed="0.05002953409140057" /><vType id="vType_14.092840439976477" accel="1.0" decel="5.0" sigma="0.0" length="5" maxSpeed="3.9146778999934657" /><vType id="vType_74.1974842122533" accel="1.0" decel="5.0" sigma="0.0" length="5" maxSpeed="20.61041228118147" /><vType id="vType_2.6292991563607666" accel="1.0" decel="5.0" sigma="0.0" length="5" maxSpeed="0.7303608767668796" /><vType id="vType_2.46711211202613" accel="1.0" decel="5.0" sigma="0.0" length="5" maxSpeed="0.6853089200072583" /><vType id="vType_2.5162601881919153" accel="1.0" decel="5.0" sigma="0.0" length="5" maxSpeed="0.6989611633866432" /><vType id="vType_2.7497834600537567" accel="1.0" decel="5.0" sigma="0.0" length="5" maxSpeed="0.7638287389038213" /><vType id="vType_3.250814724661553" accel="1.0" decel="5.0" sigma="0.0" length="5" maxSpeed="0.9030040901837647" /><vType id="vType_16.148857882668473" accel="1.0" decel="5.0" sigma="0.0" length="5" maxSpeed="4.485793856296798" /><vType id="vType_3.2611134525119927" accel="1.0" decel="5.0" sigma="0.0" length="5" maxSpeed="0.905864847919998" /><vType id="vType_16.929137467790426" accel="1.0" decel="5.0" sigma="0.0" length="5" maxSpeed="4.702538185497341" /><vType id="vType_16.937859346421156" accel="1.0" decel="5.0" sigma="0.0" length="5" maxSpeed="4.704960929561432" /><vType id="vType_4.644063982922597" accel="1.0" decel="5.0" sigma="0.0" length="5" maxSpeed="1.2900177730340545" /><vType id="vType_4.238313182631161" accel="1.0" decel="5.0" sigma="0.0" length="5" maxSpeed="1.1773092173975446" /><vType id="vType_4.435902869192682" accel="1.0" decel="5.0" sigma="0.0" length="5" maxSpeed="1.2321952414424115" /><vType id="vType_4.319400535435826" accel="1.0" decel="5.0" sigma="0.0" length="5" maxSpeed="1.1998334820655072" /><vType id="vType_4.274086356818942" accel="1.0" decel="5.0" sigma="0.0" length="5" maxSpeed="1.187246210227484" /><vType id="vType_18.727283615214816" accel="1.0" decel="5.0" sigma="0.0" length="5" maxSpeed="5.20202322644856" /><vType id="vType_18.64545357247073" accel="1.0" decel="5.0" sigma="0.0" length="5" maxSpeed="5.179292659019647" /><vType id="vType_6.85824444417942" accel="1.0" decel="5.0" sigma="0.0" length="5" maxSpeed="1.9050679011609502" /><vType id="vType_6.618060753428737" accel="1.0" decel="5.0" sigma="0.0" length="5" maxSpeed="1.8383502092857602" /><vType id="vType_19.481477449044796" accel="1.0" decel="5.0" sigma="0.0" length="5" maxSpeed="5.411521513623554" /><vType id="vType_7.741538333718226" accel="1.0" decel="5.0" sigma="0.0" length="5" maxSpeed="2.1504273149217292" /><vType id="vType_20.916660686083482" accel="1.0" decel="5.0" sigma="0.0" length="5" maxSpeed="5.8101835239120785" /><vType id="vType_21.46638350618668" accel="1.0" decel="5.0" sigma="0.0" length="5" maxSpeed="5.962884307274078" /><vType id="vType_21.985284136403898" accel="1.0" decel="5.0" sigma="0.0" length="5" maxSpeed="6.107023371223304" /><vType id="vType_21.173268745526485" accel="1.0" decel="5.0" sigma="0.0" length="5" maxSpeed="5.881463540424024" /><vType id="vType_22.629772000030698" accel="1.0" decel="5.0" sigma="0.0" length="5" maxSpeed="6.286047777786305" /><vType id="vType_22.525185589367062" accel="1.0" decel="5.0" sigma="0.0" length="5" maxSpeed="6.256995997046406" /><vType id="vType_22.130308844793035" accel="1.0" decel="5.0" sigma="0.0" length="5" maxSpeed="6.14730801244251" /><vType id="vType_23.394799867636515" accel="1.0" decel="5.0" sigma="0.0" length="5" maxSpeed="6.498555518787921" /><vType id="vType_23.016767321354017" accel="1.0" decel="5.0" sigma="0.0" length="5" maxSpeed="6.393546478153893" /><vType id="vType_35.28541202749909" accel="1.0" decel="5.0" sigma="0.0" length="5" maxSpeed="9.80150334097197" /><vType id="vType_23.94812313582503" accel="1.0" decel="5.0" sigma="0.0" length="5" maxSpeed="6.652256426618063" /><vType id="vType_24.92009559717698" accel="1.0" decel="5.0" sigma="0.0" length="5" maxSpeed="6.922248776993606" /><vType id="vType_24.026379552827514" accel="1.0" decel="5.0" sigma="0.0" length="5" maxSpeed="6.673994320229864" /><vType id="vType_7.685967686863002" accel="1.0" decel="5.0" sigma="0.0" length="5" maxSpeed="2.1349910241286114" /><vType id="vType_27.94402532891013" accel="1.0" decel="5.0" sigma="0.0" length="5" maxSpeed="7.762229258030591" /><vType id="vType_27.32710768935759" accel="1.0" decel="5.0" sigma="0.0" length="5" maxSpeed="7.5908632470437745" /><vType id="vType_2.974525846426703" accel="1.0" decel="5.0" sigma="0.0" length="5" maxSpeed="0.826257179562973" /><vType id="vType_2.873754413728358" accel="1.0" decel="5.0" sigma="0.0" length="5" maxSpeed="0.7982651149245439" /><vType id="vType_28.99719975403145" accel="1.0" decel="5.0" sigma="0.0" length="5" maxSpeed="8.05477770945318" /><vType id="vType_2.8259323101748226" accel="1.0" decel="5.0" sigma="0.0" length="5" maxSpeed="0.7849811972707841" /><vType id="vType_28.320624299684845" accel="1.0" decel="5.0" sigma="0.0" length="5" maxSpeed="7.86684008324579" /><vType id="vType_3.0406485376297017" accel="1.0" decel="5.0" sigma="0.0" length="5" maxSpeed="0.8446245937860282" /><vType id="vType_2.9495500031942985" accel="1.0" decel="5.0" sigma="0.0" length="5" maxSpeed="0.8193194453317496" /><vType id="vType_28.39188433292437" accel="1.0" decel="5.0" sigma="0.0" length="5" maxSpeed="7.886634536923436" /><vType id="vType_3.1395538055168193" accel="1.0" decel="5.0" sigma="0.0" length="5" maxSpeed="0.8720982793102275" /><vType id="vType_2.3307847868649976" accel="1.0" decel="5.0" sigma="0.0" length="5" maxSpeed="0.6474402185736104" /><vType id="vType_4.493520745324384" accel="1.0" decel="5.0" sigma="0.0" length="5" maxSpeed="1.248200207034551" /><vType id="vType_4.135023608254146" accel="1.0" decel="5.0" sigma="0.0" length="5" maxSpeed="1.148617668959485" /><vType id="vType_4.6119108729798075" accel="1.0" decel="5.0" sigma="0.0" length="5" maxSpeed="1.2810863536055022" /><vType id="vType_5.730948096132531" accel="1.0" decel="5.0" sigma="0.0" length="5" maxSpeed="1.5919300267034808" /><vType id="vType_5.403189681871263" accel="1.0" decel="5.0" sigma="0.0" length="5" maxSpeed="1.5008860227420173" /><vType id="vType_5.636698646293988" accel="1.0" decel="5.0" sigma="0.0" length="5" maxSpeed="1.5657496239705522" /><vType id="vType_5.455671163093514" accel="1.0" decel="5.0" sigma="0.0" length="5" maxSpeed="1.5154642119704207" /><vType id="vType_6.660493357754932" accel="1.0" decel="5.0" sigma="0.0" length="5" maxSpeed="1.8501370438208145" /><vType id="vType_6.481972792887534" accel="1.0" decel="5.0" sigma="0.0" length="5" maxSpeed="1.800547998024315" /><vType id="vType_1.3507974204678157" accel="1.0" decel="5.0" sigma="0.0" length="5" maxSpeed="0.37522150568550433" /><vType id="vType_33.45330743392137" accel="1.0" decel="5.0" sigma="0.0" length="5" maxSpeed="9.292585398311491" /><vType id="vType_1.7245180401305782" accel="1.0" decel="5.0" sigma="0.0" length="5" maxSpeed="0.4790327889251606" /><vType id="vType_8.543193012316893" accel="1.0" decel="5.0" sigma="0.0" length="5" maxSpeed="2.373109170088026" /><vType id="vType_2.888101044794418" accel="1.0" decel="5.0" sigma="0.0" length="5" maxSpeed="0.8022502902206717" /><vType id="vType_2.760819656968247" accel="1.0" decel="5.0" sigma="0.0" length="5" maxSpeed="0.7668943491578464" /><vType id="vType_34.84279290977098" accel="1.0" decel="5.0" sigma="0.0" length="5" maxSpeed="9.678553586047494" /><vType id="vType_34.09455635083966" accel="1.0" decel="5.0" sigma="0.0" length="5" maxSpeed="9.470710097455461" /><vType id="vType_9.086209031869602" accel="1.0" decel="5.0" sigma="0.0" length="5" maxSpeed="2.5239469532971115" /><vType id="vType_3.859392587512334" accel="1.0" decel="5.0" sigma="0.0" length="5" maxSpeed="1.0720534965312039" /><vType id="vType_3.029639539396387" accel="1.0" decel="5.0" sigma="0.0" length="5" maxSpeed="0.8415665387212186" /><vType id="vType_35.22448716982127" accel="1.0" decel="5.0" sigma="0.0" length="5" maxSpeed="9.784579769394798" /><vType id="vType_10.622634189294454" accel="1.0" decel="5.0" sigma="0.0" length="5" maxSpeed="2.9507317192484592" /><vType id="vType_10.294741586268751" accel="1.0" decel="5.0" sigma="0.0" length="5" maxSpeed="2.8596504406302086" /><vType id="vType_3.5150870080836634" accel="1.0" decel="5.0" sigma="0.0" length="5" maxSpeed="0.9764130578010176" /><vType id="vType_3.6435395588249713" accel="1.0" decel="5.0" sigma="0.0" length="5" maxSpeed="1.0120943218958254" /><vType id="vType_3.1943059355662506" accel="1.0" decel="5.0" sigma="0.0" length="5" maxSpeed="0.8873072043239585" /><vType id="vType_11.598928581700969" accel="1.0" decel="5.0" sigma="0.0" length="5" maxSpeed="3.221924606028047" /><vType id="vType_11.691824761935793" accel="1.0" decel="5.0" sigma="0.0" length="5" maxSpeed="3.24772910053772" /><vType id="vType_4.186977535825726" accel="1.0" decel="5.0" sigma="0.0" length="5" maxSpeed="1.163049315507146" /><vType id="vType_37.991989859518654" accel="1.0" decel="5.0" sigma="0.0" length="5" maxSpeed="10.55333051653296" /><vType id="vType_37.68998045878204" accel="1.0" decel="5.0" sigma="0.0" length="5" maxSpeed="10.469439016328344" /><vType id="vType_37.99708506513292" accel="1.0" decel="5.0" sigma="0.0" length="5" maxSpeed="10.554745851425812" /><vType id="vType_0.20108589810991337" accel="1.0" decel="5.0" sigma="0.0" length="5" maxSpeed="0.05585719391942038" /><vType id="vType_38.53533807796305" accel="1.0" decel="5.0" sigma="0.0" length="5" maxSpeed="10.704260577211958" /><vType id="vType_38.763373071549445" accel="1.0" decel="5.0" sigma="0.0" length="5" maxSpeed="10.767603630985956" /><vType id="vType_38.447008902292595" accel="1.0" decel="5.0" sigma="0.0" length="5" maxSpeed="10.679724695081276" /><vType id="vType_38.55756965635142" accel="1.0" decel="5.0" sigma="0.0" length="5" maxSpeed="10.71043601565317" /><vType id="vType_14.862913133621499" accel="1.0" decel="5.0" sigma="0.0" length="5" maxSpeed="4.1285869815615275" /><vType id="vType_40.89577298475927" accel="1.0" decel="5.0" sigma="0.0" length="5" maxSpeed="11.359936940210908" /><vType id="vType_2.534524452967406" accel="1.0" decel="5.0" sigma="0.0" length="5" maxSpeed="0.7040345702687238" /><vType id="vType_15.498055930000627" accel="1.0" decel="5.0" sigma="0.0" length="5" maxSpeed="4.305015536111285" /><vType id="vType_15.438724659359389" accel="1.0" decel="5.0" sigma="0.0" length="5" maxSpeed="4.28853462759983" /><vType id="vType_15.529605378498326" accel="1.0" decel="5.0" sigma="0.0" length="5" maxSpeed="4.313779271805091" /><vType id="vType_15.752869556857904" accel="1.0" decel="5.0" sigma="0.0" length="5" maxSpeed="4.375797099127196" /><vType id="vType_3.4994654270725603" accel="1.0" decel="5.0" sigma="0.0" length="5" maxSpeed="0.9720737297423778" /><vType id="vType_2.4314353568420684" accel="1.0" decel="5.0" sigma="0.0" length="5" maxSpeed="0.6753987102339079" /><vType id="vType_3.259337772672093" accel="1.0" decel="5.0" sigma="0.0" length="5" maxSpeed="0.9053716035200258" /><vType id="vType_4.476330903239375" accel="1.0" decel="5.0" sigma="0.0" length="5" maxSpeed="1.2434252508998263" /><vType id="vType_4.059066834395021" accel="1.0" decel="5.0" sigma="0.0" length="5" maxSpeed="1.1275185651097281" /><vType id="vType_5.4244503147230985" accel="1.0" decel="5.0" sigma="0.0" length="5" maxSpeed="1.5067917540897495" /><vType id="vType_6.562480042403865" accel="1.0" decel="5.0" sigma="0.0" length="5" maxSpeed="1.8229111228899626" /><vType id="vType_6.4473198486770995" accel="1.0" decel="5.0" sigma="0.0" length="5" maxSpeed="1.7909221801880832" /><vType id="vType_6.28046927443611" accel="1.0" decel="5.0" sigma="0.0" length="5" maxSpeed="1.744574798454475" /><vType id="vType_8.19013532615638" accel="1.0" decel="5.0" sigma="0.0" length="5" maxSpeed="2.2750375905989944" /><vType id="vType_45.71693802371317" accel="1.0" decel="5.0" sigma="0.0" length="5" maxSpeed="12.699149451031435" /><vType id="vType_2.9598342001247206" accel="1.0" decel="5.0" sigma="0.0" length="5" maxSpeed="0.8221761667013112" /><vType id="vType_47.66308809781378" accel="1.0" decel="5.0" sigma="0.0" length="5" maxSpeed="13.23974669383716" /><vType id="vType_3.4031630400521737" accel="1.0" decel="5.0" sigma="0.0" length="5" maxSpeed="0.9453230666811594" /><vType id="vType_3.116377233852052" accel="1.0" decel="5.0" sigma="0.0" length="5" maxSpeed="0.865660342736681" /><vType id="vType_48.96984214338621" accel="1.0" decel="5.0" sigma="0.0" length="5" maxSpeed="13.602733928718392" /><vType id="vType_9.061014659310565" accel="1.0" decel="5.0" sigma="0.0" length="5" maxSpeed="2.516948516475157" /><vType id="vType_4.0523922614034475" accel="1.0" decel="5.0" sigma="0.0" length="5" maxSpeed="1.1256645170565132" /><vType id="vType_0.8629928159992576" accel="1.0" decel="5.0" sigma="0.0" length="5" maxSpeed="0.23972022666646042" /><vType id="vType_51.493271435410605" accel="1.0" decel="5.0" sigma="0.0" length="5" maxSpeed="14.303686509836279" /><vType id="vType_2.9002147241065828" accel="1.0" decel="5.0" sigma="0.0" length="5" maxSpeed="0.8056152011407174" /><vType id="vType_2.0261961307017238" accel="1.0" decel="5.0" sigma="0.0" length="5" maxSpeed="0.5628322585282566" /><vType id="vType_3.820632064088354" accel="1.0" decel="5.0" sigma="0.0" length="5" maxSpeed="1.0612866844689872" /><vType id="vType_3.053481605180881" accel="1.0" decel="5.0" sigma="0.0" length="5" maxSpeed="0.8481893347724669" /><vType id="vType_3.672972437319661" accel="1.0" decel="5.0" sigma="0.0" length="5" maxSpeed="1.0202701214776837" /><vType id="vType_4.826073865777257" accel="1.0" decel="5.0" sigma="0.0" length="5" maxSpeed="1.3405760738270158" /><vType id="vType_4.510714632564795" accel="1.0" decel="5.0" sigma="0.0" length="5" maxSpeed="1.2529762868235543" /><vType id="vType_4.833715070500137" accel="1.0" decel="5.0" sigma="0.0" length="5" maxSpeed="1.3426986306944826" /><vType id="vType_4.0928789061301565" accel="1.0" decel="5.0" sigma="0.0" length="5" maxSpeed="1.1369108072583767" /><vType id="vType_4.165126371145799" accel="1.0" decel="5.0" sigma="0.0" length="5" maxSpeed="1.1569795475404998" /><vType id="vType_5.818522970443087" accel="1.0" decel="5.0" sigma="0.0" length="5" maxSpeed="1.6162563806786354" /><vType id="vType_5.0511101862988745" accel="1.0" decel="5.0" sigma="0.0" length="5" maxSpeed="1.4030861628607985" /><vType id="vType_55.69480443400675" accel="1.0" decel="5.0" sigma="0.0" length="5" maxSpeed="15.470779009446318" /><vType id="vType_7.925105431728969" accel="1.0" decel="5.0" sigma="0.0" length="5" maxSpeed="2.2014181754802693" /><vType id="vType_1.6209569045613788" accel="1.0" decel="5.0" sigma="0.0" length="5" maxSpeed="0.4502658068226052" /><vType id="vType_8.414228073446917" accel="1.0" decel="5.0" sigma="0.0" length="5" maxSpeed="2.337285575957477" /><vType id="vType_8.886708928506284" accel="1.0" decel="5.0" sigma="0.0" length="5" maxSpeed="2.4685302579184123" /><vType id="vType_2.9254022855661757" accel="1.0" decel="5.0" sigma="0.0" length="5" maxSpeed="0.8126117459906044" /><vType id="vType_2.0311990841108636" accel="1.0" decel="5.0" sigma="0.0" length="5" maxSpeed="0.5642219678085733" /><vType id="vType_9.116263277056394" accel="1.0" decel="5.0" sigma="0.0" length="5" maxSpeed="2.532295354737887" /><vType id="vType_9.740738724522398" accel="1.0" decel="5.0" sigma="0.0" length="5" maxSpeed="2.705760756811777" /><vType id="vType_3.936571156007933" accel="1.0" decel="5.0" sigma="0.0" length="5" maxSpeed="1.0934919877799814" /><vType id="vType_3.6206842669186057" accel="1.0" decel="5.0" sigma="0.0" length="5" maxSpeed="1.0057456296996126" /><vType id="vType_3.796308284766543" accel="1.0" decel="5.0" sigma="0.0" length="5" maxSpeed="1.0545300791018175" /><vType id="vType_10.64630250760651" accel="1.0" decel="5.0" sigma="0.0" length="5" maxSpeed="2.9573062521129194" /><vType id="vType_10.200009519792868" accel="1.0" decel="5.0" sigma="0.0" length="5" maxSpeed="2.833335977720241" /><vType id="vType_10.237487502582535" accel="1.0" decel="5.0" sigma="0.0" length="5" maxSpeed="2.843746528495149" /><vType id="vType_10.896909634426354" accel="1.0" decel="5.0" sigma="0.0" length="5" maxSpeed="3.0269193428962096" /><vType id="vType_10.589391566120849" accel="1.0" decel="5.0" sigma="0.0" length="5" maxSpeed="2.941497657255791" /><vType id="vType_11.754168790004524" accel="1.0" decel="5.0" sigma="0.0" length="5" maxSpeed="3.265046886112368" /><vType id="vType_12.562866756339464" accel="1.0" decel="5.0" sigma="0.0" length="5" maxSpeed="3.4896852100942954" /><vType id="vType_2.7015948409356314" accel="1.0" decel="5.0" sigma="0.0" length="5" maxSpeed="0.7504430113710087" /><vType id="vType_15.066067206289016" accel="1.0" decel="5.0" sigma="0.0" length="5" maxSpeed="4.1850186684136155" /><vType id="vType_3.65684019721179" accel="1.0" decel="5.0" sigma="0.0" length="5" maxSpeed="1.0157889436699417" /><vType id="vType_16.36100004537067" accel="1.0" decel="5.0" sigma="0.0" length="5" maxSpeed="4.544722234825186" /><vType id="vType_4.187725539006263" accel="1.0" decel="5.0" sigma="0.0" length="5" maxSpeed="1.1632570941684064" /><vType id="vType_17.321777353642435" accel="1.0" decel="5.0" sigma="0.0" length="5" maxSpeed="4.811604820456232" /><vType id="vType_5.643221584829878" accel="1.0" decel="5.0" sigma="0.0" length="5" maxSpeed="1.5675615513416328" /><vType id="vType_18.875224387165634" accel="1.0" decel="5.0" sigma="0.0" length="5" maxSpeed="5.243117885323787" /><vType id="vType_18.975707206902438" accel="1.0" decel="5.0" sigma="0.0" length="5" maxSpeed="5.271029779695121" /><vType id="vType_6.238028399636055" accel="1.0" decel="5.0" sigma="0.0" length="5" maxSpeed="1.7327856665655708" /><vType id="vType_19.145837168850814" accel="1.0" decel="5.0" sigma="0.0" length="5" maxSpeed="5.31828810245856" /><vType id="vType_19.10316032044177" accel="1.0" decel="5.0" sigma="0.0" length="5" maxSpeed="5.306433422344936" /><vType id="vType_19.22127123415844" accel="1.0" decel="5.0" sigma="0.0" length="5" maxSpeed="5.339242009488456" /><vType id="vType_20.324174375744295" accel="1.0" decel="5.0" sigma="0.0" length="5" maxSpeed="5.645603993262304" /><vType id="vType_20.220247750354826" accel="1.0" decel="5.0" sigma="0.0" length="5" maxSpeed="5.616735486209674" /><vType id="vType_9.418071054030008" accel="1.0" decel="5.0" sigma="0.0" length="5" maxSpeed="2.616130848341669" /><vType id="vType_21.869350446749213" accel="1.0" decel="5.0" sigma="0.0" length="5" maxSpeed="6.0748195685414474" /><vType id="vType_2.465205292353763" accel="1.0" decel="5.0" sigma="0.0" length="5" maxSpeed="0.6847792478760453" /><vType id="vType_2.701594840935632" accel="1.0" decel="5.0" sigma="0.0" length="5" maxSpeed="0.7504430113710088" /><vType id="vType_22.642289099044465" accel="1.0" decel="5.0" sigma="0.0" length="5" maxSpeed="6.289524749734573" /><vType id="vType_3.689078202512538" accel="1.0" decel="5.0" sigma="0.0" length="5" maxSpeed="1.0247439451423717" /><vType id="vType_3.461382030729508" accel="1.0" decel="5.0" sigma="0.0" length="5" maxSpeed="0.9614950085359744" /><vType id="vType_22.10560650069417" accel="1.0" decel="5.0" sigma="0.0" length="5" maxSpeed="6.1404462501928245" /><vType id="vType_23.112096296597098" accel="1.0" decel="5.0" sigma="0.0" length="5" maxSpeed="6.420026749054749" /><vType id="vType_23.60618580715128" accel="1.0" decel="5.0" sigma="0.0" length="5" maxSpeed="6.5572738353198" /><vType id="vType_24.36451051314926" accel="1.0" decel="5.0" sigma="0.0" length="5" maxSpeed="6.767919586985905" /><vType id="vType_24.89953649986349" accel="1.0" decel="5.0" sigma="0.0" length="5" maxSpeed="6.916537916628747" /><vType id="vType_26.7323436944676" accel="1.0" decel="5.0" sigma="0.0" length="5" maxSpeed="7.425651026240999" /><vType id="vType_27.53301672879898" accel="1.0" decel="5.0" sigma="0.0" length="5" maxSpeed="7.648060202444161" /><vType id="vType_27.10274671422778" accel="1.0" decel="5.0" sigma="0.0" length="5" maxSpeed="7.528540753952161" /><vType id="vType_27.859412825729418" accel="1.0" decel="5.0" sigma="0.0" length="5" maxSpeed="7.7387257849248385" /><vType id="vType_2.2738432409843536" accel="1.0" decel="5.0" sigma="0.0" length="5" maxSpeed="0.6316231224956538" /><vType id="vType_2.870444518494109" accel="1.0" decel="5.0" sigma="0.0" length="5" maxSpeed="0.7973456995816969" /><vType id="vType_28.789497696260813" accel="1.0" decel="5.0" sigma="0.0" length="5" maxSpeed="7.9970826934057815" /><vType id="vType_2.2866420867136465" accel="1.0" decel="5.0" sigma="0.0" length="5" maxSpeed="0.6351783574204574" /><vType id="vType_28.930887009486145" accel="1.0" decel="5.0" sigma="0.0" length="5" maxSpeed="8.03635750263504" /><vType id="vType_29.334619596725073" accel="1.0" decel="5.0" sigma="0.0" length="5" maxSpeed="8.148505443534741" /><vType id="vType_29.68764933919743" accel="1.0" decel="5.0" sigma="0.0" length="5" maxSpeed="8.246569260888176" /><vType id="vType_29.097066921085396" accel="1.0" decel="5.0" sigma="0.0" length="5" maxSpeed="8.082518589190387" /><vType id="vType_4.920188396058277" accel="1.0" decel="5.0" sigma="0.0" length="5" maxSpeed="1.366718998905077" /><vType id="vType_4.870369362261199" accel="1.0" decel="5.0" sigma="0.0" length="5" maxSpeed="1.3528803784058885" /><vType id="vType_4.330505122441485" accel="1.0" decel="5.0" sigma="0.0" length="5" maxSpeed="1.2029180895670792" /><vType id="vType_31.042905006485018" accel="1.0" decel="5.0" sigma="0.0" length="5" maxSpeed="8.62302916846806" /><vType id="vType_31.992525276395032" accel="1.0" decel="5.0" sigma="0.0" length="5" maxSpeed="8.886812576776398" /><vType id="vType_7.59646110582308" accel="1.0" decel="5.0" sigma="0.0" length="5" maxSpeed="2.1101280849508552" /><vType id="vType_7.9491713703807445" accel="1.0" decel="5.0" sigma="0.0" length="5" maxSpeed="2.2081031584390955" /><vType id="vType_8.973549774439517" accel="1.0" decel="5.0" sigma="0.0" length="5" maxSpeed="2.492652715122088" /><vType id="vType_2.994186296163234" accel="1.0" decel="5.0" sigma="0.0" length="5" maxSpeed="0.8317184156008983" /><vType id="vType_2.2727702630093405" accel="1.0" decel="5.0" sigma="0.0" length="5" maxSpeed="0.6313250730581501" /><vType id="vType_9.143087919593688" accel="1.0" decel="5.0" sigma="0.0" length="5" maxSpeed="2.5397466443315797" /><vType id="vType_9.654573923011652" accel="1.0" decel="5.0" sigma="0.0" length="5" maxSpeed="2.6818260897254587" /><vType id="vType_9.27275616412531" accel="1.0" decel="5.0" sigma="0.0" length="5" maxSpeed="2.5757656011459193" /><vType id="vType_9.585636306983508" accel="1.0" decel="5.0" sigma="0.0" length="5" maxSpeed="2.662676751939863" /><vType id="vType_3.2837596965837066" accel="1.0" decel="5.0" sigma="0.0"