<?xml version='1.0' encoding='utf-8'?>
<routes><vType id="vType_car_12.959644969586646" accel="1.0" decel="5.0" sigma="0.0" length="4.5" maxSpeed="3.599901380440735" /><vType id="vType_car_10.209352836476393" accel="1.0" decel="5.0" sigma="0.0" length="4.5" maxSpeed="2.8359313434656648" /><vType id="vType_car_40.53573916662265" accel="1.0" decel="5.0" sigma="0.0" length="4.5" maxSpeed="11.259927546284068" /><vType id="vType_car_5.419660612824445" accel="1.0" decel="5.0" sigma="0.0" length="4.5" maxSpeed="1.5054612813401236" /><vType id="vType_car_14.583192229172873" accel="1.0" decel="5.0" sigma="0.0" length="4.5" maxSpeed="4.050886730325798" /><vType id="vType_car_8.850993454461909" accel="1.0" decel="5.0" sigma="0.0" length="4.5" maxSpeed="2.4586092929060857" /><vType id="vType_car_29.207449472260052" accel="1.0" decel="5.0" sigma="0.0" length="4.5" maxSpeed="8.113180408961126" /><vType id="vType_car_10.714681855699995" accel="1.0" decel="5.0" sigma="0.0" length="4.5" maxSpeed="2.9763005154722206" /><vType id="vType_car_7.91709947957039" accel="1.0" decel="5.0" sigma="0.0" length="4.5" maxSpeed="2.1991942998806637" /><vType id="vType_car_11.202414936975895" accel="1.0" decel="5.0" sigma="0.0" length="4.5" maxSpeed="3.1117819269377485" /><vType id="vType_car_8.278102552480899" accel="1.0" decel="5.0" sigma="0.0" length="4.5" maxSpeed="2.299472931244694" /><vType id="vType_car_5.678442231689084" accel="1.0" decel="5.0" sigma="0.0" length="4.5" maxSpeed="1.5773450643580789" /><vType id="vType_car_27.722913265504165" accel="1.0" decel="5.0" sigma="0.0" length="4.5" maxSpeed="7.700809240417823" /><vType id="vType_car_5.30640724944802" accel="1.0" decel="5.0" sigma="0.0" length="4.5" maxSpeed="1.474002013735561" /><vType id="vType_car_5.47065036404632" accel="1.0" decel="5.0" sigma="0.0" length="4.5" maxSpeed="1.5196251011239779" /><vType id="vType_car_17.436653450843103" accel="1.0" decel="5.0" sigma="0.0" length="4.5" maxSpeed="4.843514847456418" /><vType id="vType_car_5.717404409950611" accel="1.0" decel="5.0" sigma="0.0" length="4.5" maxSpeed="1.5881678916529476" /><vType id="vType_car_4.0662215358037095" accel="1.0" decel="5.0" sigma="0.0" length="4.5" maxSpeed="1.1295059821676972" /><vType id="vType_car_21.545637986679072" accel="1.0" decel="5.0" sigma="0.0" length="4.5" maxSpeed="5.9848994407441864" /><vType id="vType_car_5.4471533949368265" accel="1.0" decel="5.0" sigma="0.0" length="4.5" maxSpeed="1.5130981652602296" /><vType id="vType_car_4.7334863780578385" accel="1.0" decel="5.0" sigma="0.0" length="4.5" maxSpeed="1.3148573272382884" /><vType id="vType_car_4.761024185553377" accel="1.0" decel="5.0" sigma="0.0" length="4.5" maxSpeed="1.3225067182092713" /><vType id="vType_car_4.457348350896889" accel="1.0" decel="5.0" sigma="0.0" length="4.5" maxSpeed="1.2381523196935802" /><vType id="vType_car_3.8181849629885556" accel="1.0" decel="5.0" sigma="0.0" length="4.5" maxSpeed="1.0606069341634876" /><vType id="vType_car_4.198580903302486" accel="1.0" decel="5.0" sigma="0.0" length="4.5" maxSpeed="1.1662724731395795" /><vType id="vType_car_4.059099403029251" accel="1.0" decel="5.0" sigma="0.0" length="4.5" maxSpeed="1.1275276119525697" /><vType id="vType_car_7.697327040475549" accel="1.0" decel="5.0" sigma="0.0" length="4.5" maxSpeed="2.1381464001320967" /><vType id="vType_car_4.175609994011869" accel="1.0" decel="5.0" sigma="0.0" length="4.5" maxSpeed="1.1598916650032969" /><vType id="vType_car_4.89952462028615" accel="1.0" decel="5.0" sigma="0.0" length="4.5" maxSpeed="1.3609790611905972" /><vType id="vType_car_7.974495181920832" accel="1.0" decel="5.0" sigma="0.0" length="4.5" maxSpeed="2.2151375505335644" /><vType id="vType_car_10.697769779447391" accel="1.0" decel="5.0" sigma="0.0" length="4.5" maxSpeed="2.971602716513164" /><vType id="vType_car_4.171920328319272" accel="1.0" decel="5.0" sigma="0.0" length="4.5" maxSpeed="1.1588667578664644" /><vType id="vType_car_37.64430139506649" accel="1.0" decel="5.0" sigma="0.0" length="4.5" maxSpeed="10.45675038751847" /><vType id="vType_car_3.903323383339104" accel="1.0" decel="5.0" sigma="0.0" length="4.5" maxSpeed="1.0842564953719733" /><vType id="vType_car_6.773779557393602" accel="1.0" decel="5.0" sigma="0.0" length="4.5" maxSpeed="1.8816054326093337" /><vType id="vType_car_9.683617037831553" accel="1.0" decel="5.0" sigma="0.0" length="4.5" maxSpeed="2.6898936216198757" /><vType id="vType_car_3.808341407121388" accel="1.0" decel="5.0" sigma="0.0" length="4.5" maxSpeed="1.0578726130892744" /><vType id="vType_car_3.7575473370852035" accel="1.0" decel="5.0" sigma="0.0" length="4.5" maxSpeed="1.0437631491903343" /><vType id="vType_car_4.172342085553424" accel="1.0" decel="5.0" sigma="0.0" length="4.5" maxSpeed="1.158983912653729" /><vType id="vType_car_3.3850395419758024" accel="1.0" decel="5.0" sigma="0.0" length="4.5" maxSpeed="0.9402887616599451" /><vType id="vType_car_21.97979209263147" accel="1.0" decel="5.0" sigma="0.0" length="4.5" maxSpeed="6.105497803508742" /><vType id="vType_car_11.71322563516626" accel="1.0" decel="5.0" sigma="0.0" length="4.5" maxSpeed="3.2536737875461834" /><vType id="vType_car_3.9614814502396123" accel="1.0" decel="5.0" sigma="0.0" length="4.5" maxSpeed="1.1004115139554478" /><vType id="vType_truck_57.344247328881615" accel="1.0" decel="5.0" sigma="0.0" length="8" maxSpeed="15.928957591356003" /><vType id="vType_car_4.071865144394994" accel="1.0" decel="5.0" sigma="0.0" length="4.5" maxSpeed="1.1310736512208315" /><vType id="vType_car_3.782232777309883" accel="1.0" decel="5.0" sigma="0.0" length="4.5" maxSpeed="1.050620215919412" /><vType id="vType_car_12.902828564297375" accel="1.0" decel="5.0" sigma="0.0" length="4.5" maxSpeed="3.5841190456381593" /><vType id="vType_car_6.092112484876913" accel="1.0" decel="5.0" sigma="0.0" length="4.5" maxSpeed="1.6922534680213648" /><vType id="vType_car_4.484442764456507" accel="1.0" decel="5.0" sigma="0.0" length="4.5" maxSpeed="1.245678545682363" /><vType id="vType_car_3.887294798901824" accel="1.0" decel="5.0" sigma="0.0" length="4.5" maxSpeed="1.0798041108060623" /><vType id="vType_car_2.662394426209179" accel="1.0" decel="5.0" sigma="0.0" length="4.5" maxSpeed="0.7395540072803275" /><vType id="vType_car_4.408178309460116" accel="1.0" decel="5.0" sigma="0.0" length="4.5" maxSpeed="1.224493974850032" /><vType id="vType_car_4.53867933277186" accel="1.0" decel="5.0" sigma="0.0" length="4.5" maxSpeed="1.2607442591032945" /><vType id="vType_car_5.249857297424833" accel="1.0" decel="5.0" sigma="0.0" length="4.5" maxSpeed="1.4582936937291202" /><vType id="vType_car_4.304450148114487" accel="1.0" decel="5.0" sigma="0.0" length="4.5" maxSpeed="1.1956805966984685" /><vType id="vType_car_5.348884889723696" accel="1.0" decel="5.0" sigma="0.0" length="4.5" maxSpeed="1.485801358256582" /><vType id="vType_car_42.22375820444909" accel="1.0" decel="5.0" sigma="0.0" length="4.5" maxSpeed="11.728821723458081" /><vType id="vType_car_71.57279717328345" accel="1.0" decel="5.0" sigma="0.0" length="4.5" maxSpeed="19.881332548134292" /><vType id="vType_car_2.760608697251728" accel="1.0" decel="5.0" sigma="0.0" length="4.5" maxSpeed="0.766835749236591" /><vType id="vType_car_5.787029119151191" accel="1.0" decel="5.0" sigma="0.0" length="4.5" maxSpeed="1.6075080886531086" /><vType id="vType_car_3.998276979900917" accel="1.0" decel="5.0" sigma="0.0" length="4.5" maxSpeed="1.1106324944169215" /><vType id="vType_car_4.2297532350075375" accel="1.0" decel="5.0" sigma="0.0" length="4.5" maxSpeed="1.1749314541687603" /><vType id="vType_car_4.643039565568811" accel="1.0" decel="5.0" sigma="0.0" length="4.5" maxSpeed="1.289733212658003" /><vType id="vType_car_5.201015875039658" accel="1.0" decel="5.0" sigma="0.0" length="4.5" maxSpeed="1.4447266319554604" /><vType id="vType_car_3.734843819704281" accel="1.0" decel="5.0" sigma="0.0" length="4.5" maxSpeed="1.0374566165845225" /><vType id="vType_car_2.101240431838824" accel="1.0" decel="5.0" sigma="0.0" length="4.5" maxSpeed="0.5836778977330067" /><vType id="vType_truck_113.27016562165059" accel="1.0" decel="5.0" sigma="0.0" length="8" maxSpeed="31.46393489490294" /><vType id="vType_bus_101.84323499312663" accel="1.0" decel="5.0" sigma="0.0" length="13" maxSpeed="28.28978749809073" /><vType id="vType_car_4.630451688765016" accel="1.0" decel="5.0" sigma="0.0" length="4.5" maxSpeed="1.2862365802125042" /><vType id="vType_car_11.696180236373625" accel="1.0" decel="5.0" sigma="0.0" length="4.5" maxSpeed="3.248938954548229" /><vType id="vType_car_4.612334383403846" accel="1.0" decel="5.0" sigma="0.0" length="4.5" maxSpeed="1.2812039953899572" /><vType id="vType_car_6.119781187051304" accel="1.0" decel="5.0" sigma="0.0" length="4.5" maxSpeed="1.6999392186253621" /><vType id="vType_car_9.483780424690055" accel="1.0" decel="5.0" sigma="0.0" length="4.5" maxSpeed="2.634383451302793" /><vType id="vType_car_14.551256991884628" accel="1.0" decel="5.0" sigma="0.0" length="4.5" maxSpeed="4.0420158310790635" /><vType id="vType_car_3.6008009958000833" accel="1.0" decel="5.0" sigma="0.0" length="4.5" maxSpeed="1.0002224988333563" /><vType id="vType_car_9.54728132314866" accel="1.0" decel="5.0" sigma="0.0" length="4.5" maxSpeed="2.6520225897635163" /><vType id="vType_car_9.420452508505035" accel="1.0" decel="5.0" sigma="0.0" length="4.5" maxSpeed="2.6167923634736208" /><vType id="vType_car_7.871351497276766" accel="1.0" decel="5.0" sigma="0.0" length="4.5" maxSpeed="2.186486527021324" /><vType id="vType_car_8.652873455568256" accel="1.0" decel="5.0" sigma="0.0" length="4.5" maxSpeed="2.403575959880071" /><vType id="vType_car_11.001667018696557" accel="1.0" decel="5.0" sigma="0.0" length="4.5" maxSpeed="3.056018616304599" /><vType id="vType_car_3.935186703965142" accel="1.0" decel="5.0" sigma="0.0" length="4.5" maxSpeed="1.093107417768095" /><vType id="vType_car_7.564465554619766" accel="1.0" decel="5.0" sigma="0.0" length="4.5" maxSpeed="2.101240431838824" /><vType id="vType_car_3.7023588896304904" accel="1.0" decel="5.0" sigma="0.0" length="4.5" maxSpeed="1.0284330248973583" /><vType id="vType_car_22.396467867385148" accel="1.0" decel="5.0" sigma="0.0" length="4.5" maxSpeed="6.221241074273652" /><vType id="vType_car_10.084597636845452" accel="1.0" decel="5.0" sigma="0.0" length="4.5" maxSpeed="2.801277121345959" /><vType id="vType_car_8.975144574410127" accel="1.0" decel="5.0" sigma="0.0" length="4.5" maxSpeed="2.493095715113924" /><vType id="vType_car_19.14070987578738" accel="1.0" decel="5.0" sigma="0.0" length="4.5" maxSpeed="5.3168638543853834" /><vType id="vType_car_9.910715343335562" accel="1.0" decel="5.0" sigma="0.0" length="4.5" maxSpeed="2.7529764842598783" /><vType id="vType_car_7.124077363588227" accel="1.0" decel="5.0" sigma="0.0" length="4.5" maxSpeed="1.9789103787745075" /><vType id="vType_car_5.145272350632177" accel="1.0" decel="5.0" sigma="0.0" length="4.5" maxSpeed="1.4292423196200492" /><vType id="vType_car_6.57307875524232" accel="1.0" decel="5.0" sigma="0.0" length="4.5" maxSpeed="1.8258552097895333" /><vType id="vType_car_7.316928560664044" accel="1.0" decel="5.0" sigma="0.0" length="4.5" maxSpeed="2.032480155740012" /><vType id="vType_car_5.826379200873694" accel="1.0" decel="5.0" sigma="0.0" length="4.5" maxSpeed="1.6184386669093593" /><vType id="vType_car_10.069365951470271" accel="1.0" decel="5.0" sigma="0.0" length="4.5" maxSpeed="2.7970460976306306" /><vType id="vType_car_12.366230107702483" accel="1.0" decel="5.0" sigma="0.0" length="4.5" maxSpeed="3.4350639188062453" /><vType id="vType_car_20.83515251125844" accel="1.0" decel="5.0" sigma="0.0" length="4.5" maxSpeed="5.787542364238456" /><vType id="vType_car_4.469781732685724" accel="1.0" decel="5.0" sigma="0.0" length="4.5" maxSpeed="1.2416060368571455" /><vType id="vType_car_4.542335637930196" accel="1.0" decel="5.0" sigma="0.0" length="4.5" maxSpeed="1.2617598994250545" /><vType id="vType_car_4.519814439444781" accel="1.0" decel="5.0" sigma="0.0" length="4.5" maxSpeed="1.2555040109568836" /><vType id="vType_car_4.124271327807605" accel="1.0" decel="5.0" sigma="0.0" length="4.5" maxSpeed="1.1456309243910014" /><vType id="vType_car_9.175038408787584" accel="1.0" decel="5.0" sigma="0.0" length="4.5" maxSpeed="2.5486217802187734" /><vType id="vType_car_10.78817606460198" accel="1.0" decel="5.0" sigma="0.0" length="4.5" maxSpeed="2.99671557350055" /><vType id="vType_car_6.0874117780223855" accel="1.0" decel="5.0" sigma="0.0" length="4.5" maxSpeed="1.6909477161173292" /><vType id="vType_car_0.334305305607731" accel="1.0" decel="5.0" sigma="0.0" length="4.5" maxSpeed="0.09286258489103638" /><vType id="vType_truck_26.16617729906581" accel="1.0" decel="5.0" sigma="0.0" length="8" maxSpeed="7.268382583073836" /><vType id="vType_car_6.381165232157957" accel="1.0" decel="5.0" sigma="0.0" length="4.5" maxSpeed="1.7725458978216546" /><vType id="vType_car_18.769572078659372" accel="1.0" decel="5.0" sigma="0.0" length="4.5" maxSpeed="5.213770021849825" /><vType id="vType_car_9.091542754277087" accel="1.0" decel="5.0" sigma="0.0" length="4.5" maxSpeed="2.5254285428547463" /><vType id="vType_truck_4.654117692071702" accel="1.0" decel="5.0" sigma="0.0" length="8" maxSpeed="1.292810470019917" /><vType id="vType_truck_3.8036573057107197" accel="1.0" decel="5.0" sigma="0.0" length="8" maxSpeed="1.0565714738085332" /><vType id="vType_car_4.724914743988266" accel="1.0" decel="5.0" sigma="0.0" length="4.5" maxSpeed="1.3124763177745182" /><vType id="vType_car_1.8911163886549416" accel="1.0" decel="5.0" sigma="0.0" length="4.5" maxSpeed="0.525310107959706" /><vType id="vType_car_3.956305234244751" accel="1.0" decel="5.0" sigma="0.0" length="4.5" maxSpeed="1.0989736761790976" /><vType id="vType_car_8.812815340999098" accel="1.0" decel="5.0" sigma="0.0" length="4.5" maxSpeed="2.4480042613886384" /><vType id="vType_car_6.735310893362884" accel="1.0" decel="5.0" sigma="0.0" length="4.5" maxSpeed="1.8709196926008012" /><vType id="vType_car_5.423855171293261" accel="1.0" decel="5.0" sigma="0.0" length="4.5" maxSpeed="1.5066264364703503" /><vType id="vType_car_14.611397755448905" accel="1.0" decel="5.0" sigma="0.0" length="4.5" maxSpeed="4.058721598735807" /><vType id="vType_car_4.34285420817706" accel="1.0" decel="5.0" sigma="0.0" length="4.5" maxSpeed="1.2063483911602944" /><vType id="vType_car_4.358527527488009" accel="1.0" decel="5.0" sigma="0.0" length="4.5" maxSpeed="1.2107020909688915" /><vType id="vType_car_7.775688240342319" accel="1.0" decel="5.0" sigma="0.0" length="4.5" maxSpeed="2.1599134000950886" /><vType id="vType_car_9.895136706324529" accel="1.0" decel="5.0" sigma="0.0" length="4.5" maxSpeed="2.748649085090147" /><vType id="vType_car_7.47626970223605" accel="1.0" decel="5.0" sigma="0.0" length="4.5" maxSpeed="2.0767415839544583" /><vType id="vType_car_5.362399432702731" accel="1.0" decel="5.0" sigma="0.0" length="4.5" maxSpeed="1.489555397972981" /><vType id="vType_car_10.39400034952362" accel="1.0" decel="5.0" sigma="0.0" length="4.5" maxSpeed="2.8872223193121167" /><vType id="vType_car_4.498774292613952" accel="1.0" decel="5.0" sigma="0.0" length="4.5" maxSpeed="1.2496595257260976" /><vType id="vType_car_9.644064755337075" accel="1.0" decel="5.0" sigma="0.0" length="4.5" maxSpeed="2.678906876482521" /><vType id="vType_car_7.1007571844990505" accel="1.0" decel="5.0" sigma="0.0" length="4.5" maxSpeed="1.9724325512497363" /><vType id="vType_car_7.5357616967647205" accel="1.0" decel="5.0" sigma="0.0" length="4.5" maxSpeed="2.0932671379902" /><vType id="vType_car_5.673349165964825" accel="1.0" decel="5.0" sigma="0.0" length="4.5" maxSpeed="1.575930323879118" /><vType id="vType_car_6.529842528355351" accel="1.0" decel="5.0" sigma="0.0" length="4.5" maxSpeed="1.8138451467653751" /><vType id="vType_car_4.228664798396363" accel="1.0" decel="5.0" sigma="0.0" length="4.5" maxSpeed="1.1746291106656563" /><vType id="vType_car_3.4791692534869765" accel="1.0" decel="5.0" sigma="0.0" length="4.5" maxSpeed="0.9664359037463823" /><vType id="vType_car_4.893126322345695" accel="1.0" decel="5.0" sigma="0.0" length="4.5" maxSpeed="1.3592017562071375" /><vType id="vType_car_2.2163982962238924" accel="1.0" decel="5.0" sigma="0.0" length="4.5" maxSpeed="0.6156661933955256" /><vType id="vType_car_6.139254141597813" accel="1.0" decel="5.0" sigma="0.0" length="4.5" maxSpeed="1.705348372666059" /><vType id="vType_car_8.434120925309111" accel="1.0" decel="5.0" sigma="0.0" length="4.5" maxSpeed="2.3428113681414198" /><vType id="vType_car_13.26737426210665" accel="1.0" decel="5.0" sigma="0.0" length="4.5" maxSpeed="3.685381739474069" /><vType id="vType_car_10.275999265145378" accel="1.0" decel="5.0" sigma="0.0" length="4.5" maxSpeed="2.8544442403181605" /><vType id="vType_car_3.735382742329963" accel="1.0" decel="5.0" sigma="0.0" length="4.5" maxSpeed="1.0376063173138785" /><vType id="vType_car_19.285678736453328" accel="1.0" decel="5.0" sigma="0.0" length="4.5" maxSpeed="5.357132982348147" /><vType id="vType_car_6.832412548126859" accel="1.0" decel="5.0" sigma="0.0" length="4.5" maxSpeed="1.897892374479683" /><vType id="vType_car_1.4428797743281572" accel="1.0" decel="5.0" sigma="0.0" length="4.5" maxSpeed="0.400799937313377" /><vType id="vType_car_5.128192497718938" accel="1.0" decel="5.0" sigma="0.0" length="4.5" maxSpeed="1.4244979160330384" /><vType id="vType_car_8.039102829847952" accel="1.0" decel="5.0" sigma="0.0" length="4.5" maxSpeed="2.233084119402209" /><vType id="vType_car_9.773956315184973" accel="1.0" decel="5.0" sigma="0.0" length="4.5" maxSpeed="2.7149878653291593" /><vType id="vType_car_12.238171446078523" accel="1.0" decel="5.0" sigma="0.0" length="4.5" maxSpeed="3.399492068355145" /><vType id="vType_car_10.311593824860626" accel="1.0" decel="5.0" sigma="0.0" length="4.5" maxSpeed="2.8643316180168408" /><vType id="vType_truck_5.528476729313332" accel="1.0" decel="5.0" sigma="0.0" length="8" maxSpeed="1.5356879803648145" /><vType id="vType_truck_6.148364653102758" accel="1.0" decel="5.0" sigma="0.0" length="8" maxSpeed="1.7078790703063216" /><vType id="vType_car_3.1528893155235767" accel="1.0" decel="5.0" sigma="0.0" length="4.5" maxSpeed="0.875802587645438" /><vType id="vType_car_9.340086011296878" accel="1.0" decel="5.0" sigma="0.0" length="4.5" maxSpeed="2.5944683364713548" /><vType id="vType_car_10.315003744171314" accel="1.0" decel="5.0" sigma="0.0" length="4.5" maxSpeed="2.8652788178253648" /><vType id="vType_car_5.42690088007373" accel="1.0" decel="5.0" sigma="0.0" length="4.5" maxSpeed="1.5074724666871473" /><vType id="vType_car_16.26799829304481" accel="1.0" decel="5.0" sigma="0.0" length="4.5" maxSpeed="4.518888414734669" /><vType id="vType_car_5.682961324973077" accel="1.0" decel="5.0" sigma="0.0" length="4.5" maxSpeed="1.5786003680480767" /><vType id="vType_car_6.601342642907458" accel="1.0" decel="5.0" sigma="0.0" length="4.5" maxSpeed="1.833706289696516" /><vType id="vType_car_4.40950849406525" accel="1.0" decel="5.0" sigma="0.0" length="4.5" maxSpeed="1.2248634705736805" /><vType id="vType_car_6.195938656644203" accel="1.0" decel="5.0" sigma="0.0" length="4.5" maxSpeed="1.7210940712900564" /><vType id="vType_car_5.439260889018815" accel="1.0" decel="5.0" sigma="0.0" length="4.5" maxSpeed="1.5109058025052264" /><vType id="vType_car_5.908518023952888" accel="1.0" decel="5.0" sigma="0.0" length="4.5" maxSpeed="1.6412550066535798" /><vType id="vType_truck_11.385984967041653" accel="1.0" decel="5.0" sigma="0.0" length="8" maxSpeed="3.1627736019560144" /><vType id="vType_car_23.954140922962598" accel="1.0" decel="5.0" sigma="0.0" length="4.5" maxSpeed="6.6539280341562765" /><vType id="vType_car_13.380551557079364" accel="1.0" decel="5.0" sigma="0.0" length="4.5" maxSpeed="3.71681987696649" /><vType id="vType_car_5.411763673154007" accel="1.0" decel="5.0" sigma="0.0" length="4.5" maxSpeed="1.5032676869872241" /><vType id="vType_car_5.6294582621551745" accel="1.0" decel="5.0" sigma="0.0" length="4.5" maxSpeed="1.563738406154215" /><vType id="vType_car_8.537564932995572" accel="1.0" decel="5.0" sigma="0.0" length="4.5" maxSpeed="2.3715458147209922" /><vType id="vType_truck_8.643749370979828" accel="1.0" decel="5.0" sigma="0.0" length="8" maxSpeed="2.401041491938841" /><vType id="vType_car_3.7956725276823478" accel="1.0" decel="5.0" sigma="0.0" length="4.5" maxSpeed="1.0543534799117633" /><vType id="vType_car_11.96047021724365" accel="1.0" decel="5.0" sigma="0.0" length="4.5" maxSpeed="3.322352838123236" /><vType id="vType_car_6.113230120309386" accel="1.0" decel="5.0" sigma="0.0" length="4.5" maxSpeed="1.6981194778637183" /><vType id="vType_truck_19.113243380574815" accel="1.0" decel="5.0" sigma="0.0" length="8" maxSpeed="5.309234272381893" /><vType id="vType_car_4.120525961181592" accel="1.0" decel="5.0" sigma="0.0" length="4.5" maxSpeed="1.1445905447726643" /><vType id="vType_car_4.197221784942681" accel="1.0" decel="5.0" sigma="0.0" length="4.5" maxSpeed="1.165894940261856" /><vType id="vType_car_5.2310620050124275" accel="1.0" decel="5.0" sigma="0.0" length="4.5" maxSpeed="1.4530727791701188" /><vType id="vType_car_6.066586231673223" accel="1.0" decel="5.0" sigma="0.0" length="4.5" maxSpeed="1.6851628421314508" /><vType id="vType_car_9.576882267179075" accel="1.0" decel="5.0" sigma="0.0" length="4.5" maxSpeed="2.6602450742164097" /><vType id="vType_car_3.9833714595105194" accel="1.0" decel="5.0" sigma="0.0" length="4.5" maxSpeed="1.1064920720862554" /><vType id="vType_car_2.819109865597575" accel="1.0" decel="5.0" sigma="0.0" length="4.5" maxSpeed="0.7830860737771042" /><vType id="vType_car_7.942171753309456" accel="1.0" decel="5.0" sigma="0.0" length="4.5" maxSpeed="2.2061588203637377" /><vType id="vType_car_22.415294958309666" accel="1.0" decel="5.0" sigma="0.0" length="4.5" maxSpeed="6.2264708217526845" /><vType id="vType_car_3.6200006391893185" accel="1.0" decel="5.0" sigma="0.0" length="4.5" maxSpeed="1.005555733108144" /><vType id="vType_car_21.07756040681744" accel="1.0" decel="5.0" sigma="0.0" length="4.5" maxSpeed="5.854877890782622" /><vType id="vType_car_12.568387746891824" accel="1.0" decel="5.0" sigma="0.0" length="4.5" maxSpeed="3.4912188185810624" /><vType id="vType_car_5.4778696044891095" accel="1.0" decel="5.0" sigma="0.0" length="4.5" maxSpeed="1.5216304456914194" /><vType id="vType_truck_11.031086578493003" accel="1.0" decel="5.0" sigma="0.0" length="8" maxSpeed="3.0641907162480564" /><vType id="vType_car_5.209785379586151" accel="1.0" decel="5.0" sigma="0.0" length="4.5" maxSpeed="1.4471626054405975" /><vType id="vType_car_4.14539310355834" accel="1.0" decel="5.0" sigma="0.0" length="4.5" maxSpeed="1.151498084321761" /><vType id="vType_car_2.1126065778631573" accel="1.0" decel="5.0" sigma="0.0" length="4.5" maxSpeed="0.5868351605175437" /><vType id="vType_car_10.641866349952439" accel="1.0" decel="5.0" sigma="0.0" length="4.5" maxSpeed="2.9560739860978997" /><vType id="vType_car_3.7822327773098836" accel="1.0" decel="5.0" sigma="0.0" length="4.5" maxSpeed="1.050620215919412" /><vType id="vType_car_4.290712457575254" accel="1.0" decel="5.0" sigma="0.0" length="4.5" maxSpeed="1.1918645715486818" /><vType id="vType_car_2.8008779349405395" accel="1.0" decel="5.0" sigma="0.0" length="4.5" maxSpeed="0.7780216485945943" /><vType id="vType_car_35.13755711172074" accel="1.0" decel="5.0" sigma="0.0" length="4.5" maxSpeed="9.760432531033539" /><vType id="vType_bus_4.658703441458293" accel="1.0" decel="5.0" sigma="0.0" length="13" maxSpeed="1.2940842892939703" /><vType id="vType_car_18.111541410979154" accel="1.0" decel="5.0" sigma="0.0" length="4.5" maxSpeed="5.030983725271987" /><vType id="vType_car_6.229115537189439" accel="1.0" decel="5.0" sigma="0.0" length="4.5" maxSpeed="1.7303098714415108" /><vType id="vType_car_4.773039358447052" accel="1.0" decel="5.0" sigma="0.0" length="4.5" maxSpeed="1.3258442662352923" /><vType id="vType_car_4.2832104321036715" accel="1.0" decel="5.0" sigma="0.0" length="4.5" maxSpeed="1.1897806755843532" /><vType id="vType_car_20.92297361254783" accel="1.0" decel="5.0" sigma="0.0" length="4.5" maxSpeed="5.811937114596619" /><vType id="vType_truck_12.742373305488295" accel="1.0" decel="5.0" sigma="0.0" length="8" maxSpeed="3.539548140413415" /><vType id="vType_car_13.680745829909654" accel="1.0" decel="5.0" sigma="0.0" length="4.5" maxSpeed="3.800207174974904" /><vType id="vType_car_34.09415624566563" accel="1.0" decel="5.0" sigma="0.0" length="4.5" maxSpeed="9.470598957129342" /><vType id="vType_car_4.32255174549701" accel="1.0" decel="5.0" sigma="0.0" length="4.5" maxSpeed="1.2007088181936139" /><vType id="vType_car_3.565923259815797" accel="1.0" decel="5.0" sigma="0.0" length="4.5" maxSpeed="0.9905342388377214" /><vType id="vType_car_6.944012292805321" accel="1.0" decel="5.0" sigma="0.0" length="4.5" maxSpeed="1.9288923035570336" /><vType id="vType_car_6.566534939714655" accel="1.0" decel="5.0" sigma="0.0" length="4.5" maxSpeed="1.824037483254071" /><vType id="vType_car_11.412078216337235" accel="1.0" decel="5.0" sigma="0.0" length="4.5" maxSpeed="3.170021726760343" /><vType id="vType_car_15.594545241521889" accel="1.0" decel="5.0" sigma="0.0" length="4.5" maxSpeed="4.331818122644969" /><vType id="vType_car_4.788164358221716" accel="1.0" decel="5.0" sigma="0.0" length="4.5" maxSpeed="1.3300456550615878" /><vType id="vType_car_3.3619846909421187" accel="1.0" decel="5.0" sigma="0.0" length="4.5" maxSpeed="0.9338846363728107" /><vType id="vType_car_1.0571661995990906" accel="1.0" decel="5.0" sigma="0.0" length="4.5" maxSpeed="0.2936572776664141" /><vType id="vType_car_13.061056089114075" accel="1.0" decel="5.0" sigma="0.0" length="4.5" maxSpeed="3.628071135865021" /><vType id="vType_car_4.48535878188655" accel="1.0" decel="5.0" sigma="0.0" length="4.5" maxSpeed="1.245932994968486" /><vType id="vType_car_22.91368156088615" accel="1.0" decel="5.0" sigma="0.0" length="4.5" maxSpeed="6.364911544690597" /><vType id="vType_car_3.8281189553064623" accel="1.0" decel="5.0" sigma="0.0" length="4.5" maxSpeed="1.0633663764740173" /><vType id="vType_car_18.06115810203187" accel="1.0" decel="5.0" sigma="0.0" length="4.5" maxSpeed="5.01698836167552" /><vType id="vType_car_6.446065759336049" accel="1.0" decel="5.0" sigma="0.0" length="4.5" maxSpeed="1.7905738220377914" /><vType id="vType_car_39.349838669342226" accel="1.0" decel="5.0" sigma="0.0" length="4.5" maxSpeed="10.930510741483952" /><vType id="vType_car_4.536175817856968" accel="1.0" decel="5.0" sigma="0.0" length="4.5" maxSpeed="1.2600488382936021" /><vType id="vType_car_7.165809932646017" accel="1.0" decel="5.0" sigma="0.0" length="4.5" maxSpeed="1.990502759068338" /><vType id="vType_car_5.119453999740807" accel="1.0" decel="5.0" sigma="0.0" length="4.5" maxSpeed="1.4220705554835573" /><vType id="vType_car_11.130466795751401" accel="1.0" decel="5.0" sigma="0.0" length="4.5" maxSpeed="3.0917963321531667" /><vType id="vType_car_4.126367343839804" accel="1.0" decel="5.0" sigma="0.0" length="4.5" maxSpeed="1.1462131510666123" /><vType id="vType_car_4.173895805413336" accel="1.0" decel="5.0" sigma="0.0" length="4.5" maxSpeed="1.1594155015037044" /><vType id="vType_truck_3.5755009268755273" accel="1.0" decel="5.0" sigma="0.0" length="8" maxSpeed="0.9931947019098687" /><vType id="vType_car_4.7462218107185485" accel="1.0" decel="5.0" sigma="0.0" length="4.5" maxSpeed="1.318394947421819" /><vType id="vType_car_8.821303517371032" accel="1.0" decel="5.0" sigma="0.0" length="4.5" maxSpeed="2.4503620881586197" /><vType id="vType_car_9.6224505480892" accel="1.0" decel="5.0" sigma="0.0" length="4.5" maxSpeed="2.6729029300247777" /><vType id="vType_car_10.827416879392004" accel="1.0" decel="5.0" sigma="0.0" length="4.5" maxSpeed="3.007615799831112" /><vType id="vType_car_4.246462198786701" accel="1.0" decel="5.0" sigma="0.0" length="4.5" maxSpeed="1.1795728329963058" /><vType id="vType_truck_4.839398976908974" accel="1.0" decel="5.0" sigma="0.0" length="8" maxSpeed="1.3442774935858262" /><vType id="vType_car_6.227711826666414" accel="1.0" decel="5.0" sigma="0.0" length="4.5" maxSpeed="1.7299199518517816" /><vType id="vType_car_5.642778039021374" accel="1.0" decel="5.0" sigma="0.0" length="4.5" maxSpeed="1.5674383441726039" /><vType id="vType_car_7.359065031509379" accel="1.0" decel="5.0" sigma="0.0" length="4.5" maxSpeed="2.0441847309748273" /><vType id="vType_car_4.1303776911796195" accel="1.0" decel="5.0" sigma="0.0" length="4.5" maxSpeed="1.1473271364387831" /><vType id="vType_car_40.73589368951956" accel="1.0" decel="5.0" sigma="0.0" length="4.5" maxSpeed="11.315526024866543" /><vType id="vType_car_6.3367169761468825" accel="1.0" decel="5.0" sigma="0.0" length="4.5" maxSpeed="1.7601991600408007" /><vType id="vType_car_6.385033125413372" accel="1.0" decel="5.0" sigma="0.0" length="4.5" maxSpeed="1.7736203126148256" /><vType id="vType_car_3.8813521128974418" accel="1.0" decel="5.0" sigma="0.0" length="4.5" maxSpeed="1.0781533646937338" /><vType id="vType_car_5.774330966680838" accel="1.0" decel="5.0" sigma="0.0" length="4.5" maxSpeed="1.6039808240780105" /><vType id="vType_car_5.565194407217781" accel="1.0" decel="5.0" sigma="0.0" length="4.5" maxSpeed="1.5458873353382725" /><vType id="vType_car_13.494919542238117" accel="1.0" decel="5.0" sigma="0.0" length="4.5" maxSpeed="3.74858876173281" /><vType id="vType_car_39.31423697664966" accel="1.0" decel="5.0" sigma="0.0" length="4.5" maxSpeed="10.920621382402683" /><vType id="vType_car_14.166471585403599" accel="1.0" decel="5.0" sigma="0.0" length="4.5" maxSpeed="3.935130995945444" /><vType id="vType_car_60.61740711143382" accel="1.0" decel="5.0" sigma="0.0" length="4.5" maxSpeed="16.83816864206495" /><vType id="vType_car_12.60901195049739" accel="1.0" decel="5.0" sigma="0.0" length="4.5" maxSpeed="3.5025033195826083" /><vType id="vType_car_6.264452847461091" accel="1.0" decel="5.0" sigma="0.0" length="4.5" maxSpeed="1.740125790961414" /><vType id="vType_car_20.36794684475978" accel="1.0" decel="5.0" sigma="0.0" length="4.5