<?xml version="1.0" encoding="UTF-8"?>

<!-- generated on 2025-01-30 12:31:58 by Eclipse SUMO netconvert Version 1.20.0
<configuration xmlns:xsi="http://www.w3.org/2001/XMLSchema-instance" xsi:noNamespaceSchemaLocation="http://sumo.dlr.de/xsd/netconvertConfiguration.xsd">

    <input>
        <node-files value="sumo_files/nod.xml"/>
        <edge-files value="sumo_files/edg.xml"/>
        <type-files value="sumo_files/type.xml"/>
    </input>

    <output>
        <output-file value="sumo_files/simple_nw_se.net.xml"/>
    </output>

</configuration>
-->

<net version="1.20" junctionCornerDetail="5" limitTurnSpeed="5.50" xmlns:xsi="http://www.w3.org/2001/XMLSchema-instance" xsi:noNamespaceSchemaLocation="http://sumo.dlr.de/xsd/net_file.xsd">

    <location netOffset="0.00,100.00" convBoundary="0.00,0.00,0.00,200.00" origBoundary="0.00,-100.00,0.00,100.00" projParameter="!"/>

    <type id="2L45" priority="2" numLanes="2" speed="45.00"/>
    <type id="3L45" priority="3" numLanes="3" speed="45.00"/>

    <edge id=":center_0" function="internal">
        <lane id=":center_0_0" index="0" speed="45.00" length="8.81" shape="-8.00,104.00 -7.50,101.54 -6.40,100.00 -5.30,98.46 -4.80,96.00"/>
        <lane id=":center_0_1" index="1" speed="45.00" length="8.81" shape="-4.80,104.00 -4.30,101.54 -3.20,100.00 -2.10,98.46 -1.60,96.00"/>
    </edge>
    <edge id=":center_2" function="internal">
        <lane id=":center_2_0" index="0" speed="45.00" length="8.81" shape="8.00,96.00 7.50,98.46 6.40,100.00 5.30,101.54 4.80,104.00"/>
        <lane id=":center_2_1" index="1" speed="45.00" length="8.81" shape="4.80,96.00 4.30,98.46 3.20,100.00 2.10,101.54 1.60,104.00"/>
    </edge>
    <edge id=":n1_0" function="internal">
        <lane id=":n1_0_0" index="0" speed="3.65" length="4.67" shape="1.60,200.00 0.80,201.20 0.00,201.60 -0.80,201.20 -1.60,200.00"/>
    </edge>
    <edge id=":n3_0" function="internal">
        <lane id=":n3_0_0" index="0" speed="3.65" length="4.67" shape="-1.60,0.00 -0.80,-1.20 -0.00,-1.60 0.80,-1.20 1.60,-0.00"/>
    </edge>

    <edge id="center_to_north" from="center" to="n1" priority="2" type="2L45">
        <lane id="center_to_north_0" index="0" speed="45.00" length="96.00" shape="4.80,104.00 4.80,200.00"/>
        <lane id="center_to_north_1" index="1" speed="45.00" length="96.00" shape="1.60,104.00 1.60,200.00"/>
    </edge>
    <edge id="center_to_south" from="center" to="n3" priority="2" type="2L45">
        <lane id="center_to_south_0" index="0" speed="45.00" length="96.00" shape="-4.80,96.00 -4.80,0.00"/>
        <lane id="center_to_south_1" index="1" speed="45.00" length="96.00" shape="-1.60,96.00 -1.60,0.00"/>
    </edge>
    <edge id="north_to_center" from="n1" to="center" priority="3" type="3L45">
        <lane id="north_to_center_0" index="0" speed="45.00" length="96.00" shape="-8.00,200.00 -8.00,104.00"/>
        <lane id="north_to_center_1" index="1" speed="45.00" length="96.00" shape="-4.80,200.00 -4.80,104.00"/>
        <lane id="north_to_center_2" index="2" speed="45.00" length="96.00" shape="-1.60,200.00 -1.60,104.00"/>
    </edge>
    <edge id="south_to_center" from="n3" to="center" priority="3" type="3L45">
        <lane id="south_to_center_0" index="0" speed="45.00" length="96.00" shape="8.00,-0.00 8.00,96.00"/>
        <lane id="south_to_center_1" index="1" speed="45.00" length="96.00" shape="4.80,-0.00 4.80,96.00"/>
        <lane id="south_to_center_2" index="2" speed="45.00" length="96.00" shape="1.60,-0.00 1.60,96.00"/>
    </edge>

    <tlLogic id="center" type="static" programID="0" offset="0">
        <phase duration="76" state="GGGG"/>
        <phase duration="9"  state="yyyy"/>
        <phase duration="5"  state="rrrr"/>
    </tlLogic>

    <junction id="center" type="traffic_light" x="0.00" y="100.00" incLanes="north_to_center_0 north_to_center_1 north_to_center_2 south_to_center_0 south_to_center_1 south_to_center_2" intLanes=":center_0_0 :center_0_1 :center_2_0 :center_2_1" shape="-9.60,104.00 6.40,104.00 7.23,100.97 8.77,99.03 9.36,97.79 9.60,96.00 -6.40,96.00 -7.23,99.03 -8.77,100.97 -9.36,102.21">
        <request index="0" response="0000" foes="0000" cont="0"/>
        <request index="1" response="0000" foes="0000" cont="0"/>
        <request index="2" response="0000" foes="0000" cont="0"/>
        <request index="3" response="0000" foes="0000" cont="0"/>
    </junction>
    <junction id="n1" type="priority" x="0.00" y="200.00" incLanes="center_to_north_0 center_to_north_1" intLanes=":n1_0_0" shape="0.00,200.00 6.40,200.00 0.00,200.00">
        <request index="0" response="0" foes="0" cont="0"/>
    </junction>
    <junction id="n3" type="priority" x="0.00" y="0.00" incLanes="center_to_south_0 center_to_south_1" intLanes=":n3_0_0" shape="0.00,-0.00 -6.40,-0.00 0.00,-0.00">
        <request index="0" response="0" foes="0" cont="0"/>
    </junction>

    <connection from="center_to_north" to="north_to_center" fromLane="1" toLane="2" via=":n1_0_0" dir="t" state="M"/>
    <connection from="center_to_south" to="south_to_center" fromLane="1" toLane="2" via=":n3_0_0" dir="t" state="M"/>
    <connection from="north_to_center" to="center_to_south" fromLane="0" toLane="0" via=":center_0_0" tl="center" linkIndex="0" dir="s" state="O"/>
    <connection from="north_to_center" to="center_to_south" fromLane="1" toLane="1" via=":center_0_1" tl="center" linkIndex="1" dir="s" state="O"/>
    <connection from="south_to_center" to="center_to_north" fromLane="0" toLane="0" via=":center_2_0" tl="center" linkIndex="2" dir="s" state="O"/>
    <connection from="south_to_center" to="center_to_north" fromLane="1" toLane="1" via=":center_2_1" tl="center" linkIndex="3" dir="s" state="O"/>

    <connection from=":center_0" to="center_to_south" fromLane="0" toLane="0" dir="s" state="M"/>
    <connection from=":center_0" to="center_to_south" fromLane="1" toLane="1" dir="s" state="M"/>
    <connection from=":center_2" to="center_to_north" fromLane="0" toLane="0" dir="s" state="M"/>
    <connection from=":center_2" to="center_to_north" fromLane="1" toLane="1" dir="s" state="M"/>
    <connection from=":n1_0" to="north_to_center" fromLane="0" toLane="2" dir="t" state="M"/>
    <connection from=":n3_0" to="south_to_center" fromLane="0" toLane="2" dir="t" state="M"/>

</net>
