<?xml version="1.0" encoding="UTF-8"?>

<!-- generated on 2025-01-03 10:59:26 by Eclipse SUMO netconvert Version 1.20.0
<configuration xmlns:xsi="http://www.w3.org/2001/XMLSchema-instance" xsi:noNamespaceSchemaLocation="http://sumo.dlr.de/xsd/netconvertConfiguration.xsd">

    <input>
        <node-files value="sumo_files/nod.xml"/>
        <edge-files value="sumo_files/edg.xml"/>
        <type-files value="sumo_files/type.xml"/>
    </input>

    <output>
        <output-file value="sumo_files/simple_nw_se.net.xml"/>
    </output>

</configuration>
-->

<net version="1.20" junctionCornerDetail="5" limitTurnSpeed="5.50" xmlns:xsi="http://www.w3.org/2001/XMLSchema-instance" xsi:noNamespaceSchemaLocation="http://sumo.dlr.de/xsd/net_file.xsd">

    <location netOffset="100.00,100.00" convBoundary="0.00,0.00,200.00,200.00" origBoundary="-100.00,-100.00,100.00,100.00" projParameter="!"/>

    <type id="3L45" priority="3" numLanes="3" speed="45.00"/>

    <edge id=":center_0" function="internal">
        <lane id=":center_0_0" index="0" speed="6.51" length="9.03" shape="92.00,113.60 91.65,111.15 90.60,109.40 88.85,108.35 86.40,108.00"/>
    </edge>
    <edge id=":center_1" function="internal">
        <lane id=":center_1_0" index="0" speed="45.00" length="27.20" shape="92.00,113.60 92.00,86.40"/>
        <lane id=":center_1_1" index="1" speed="45.00" length="27.20" shape="95.20,113.60 95.20,86.40"/>
        <lane id=":center_1_2" index="2" speed="45.00" length="27.20" shape="98.40,113.60 98.40,86.40"/>
    </edge>
    <edge id=":center_4" function="internal">
        <lane id=":center_4_0" index="0" speed="10.36" length="5.01" shape="98.40,113.60 99.11,108.64"/>
    </edge>
    <edge id=":center_5" function="internal">
        <lane id=":center_5_0" index="0" speed="3.65" length="1.44" shape="98.40,113.60 99.20,112.40"/>
    </edge>
    <edge id=":center_24" function="internal">
        <lane id=":center_24_0" index="0" speed="10.36" length="19.50" shape="99.11,108.64 99.35,106.95 102.20,102.20 106.95,99.35 113.60,98.40"/>
    </edge>
    <edge id=":center_25" function="internal">
        <lane id=":center_25_0" index="0" speed="3.65" length="3.23" shape="99.20,112.40 100.00,112.00 100.80,112.40 101.60,113.60"/>
    </edge>
    <edge id=":center_6" function="internal">
        <lane id=":center_6_0" index="0" speed="6.51" length="9.03" shape="113.60,108.00 111.15,108.35 109.40,109.40 108.35,111.15 108.00,113.60"/>
    </edge>
    <edge id=":center_7" function="internal">
        <lane id=":center_7_0" index="0" speed="45.00" length="27.20" shape="113.60,108.00 86.40,108.00"/>
        <lane id=":center_7_1" index="1" speed="45.00" length="27.20" shape="113.60,104.80 86.40,104.80"/>
        <lane id=":center_7_2" index="2" speed="45.00" length="27.20" shape="113.60,101.60 86.40,101.60"/>
    </edge>
    <edge id=":center_10" function="internal">
        <lane id=":center_10_0" index="0" speed="10.36" length="24.51" shape="113.60,101.60 106.95,100.65 102.20,97.80 99.35,93.05 98.40,86.40"/>
    </edge>
    <edge id=":center_11" function="internal">
        <lane id=":center_11_0" index="0" speed="3.65" length="4.67" shape="113.60,101.60 112.40,100.80 112.00,100.00 112.40,99.20 113.60,98.40"/>
    </edge>
    <edge id=":center_12" function="internal">
        <lane id=":center_12_0" index="0" speed="6.51" length="9.03" shape="108.00,86.40 108.35,88.85 109.40,90.60 111.15,91.65 113.60,92.00"/>
    </edge>
    <edge id=":center_13" function="internal">
        <lane id=":center_13_0" index="0" speed="45.00" length="27.20" shape="108.00,86.40 108.00,113.60"/>
        <lane id=":center_13_1" index="1" speed="45.00" length="27.20" shape="104.80,86.40 104.80,113.60"/>
        <lane id=":center_13_2" index="2" speed="45.00" length="27.20" shape="101.60,86.40 101.60,113.60"/>
    </edge>
    <edge id=":center_16" function="internal">
        <lane id=":center_16_0" index="0" speed="10.36" length="5.01" shape="101.60,86.40 100.89,91.36"/>
    </edge>
    <edge id=":center_17" function="internal">
        <lane id=":center_17_0" index="0" speed="3.65" length="1.44" shape="101.60,86.40 100.80,87.60"/>
    </edge>
    <edge id=":center_26" function="internal">
        <lane id=":center_26_0" index="0" speed="10.36" length="19.50" shape="100.89,91.36 100.65,93.05 97.80,97.80 93.05,100.65 86.40,101.60"/>
    </edge>
    <edge id=":center_27" function="internal">
        <lane id=":center_27_0" index="0" speed="3.65" length="3.23" shape="100.80,87.60 100.00,88.00 99.20,87.60 98.40,86.40"/>
    </edge>
    <edge id=":center_18" function="internal">
        <lane id=":center_18_0" index="0" speed="6.51" length="9.03" shape="86.40,92.00 88.85,91.65 90.60,90.60 91.65,88.85 92.00,86.40"/>
    </edge>
    <edge id=":center_19" function="internal">
        <lane id=":center_19_0" index="0" speed="45.00" length="27.20" shape="86.40,92.00 113.60,92.00"/>
        <lane id=":center_19_1" index="1" speed="45.00" length="27.20" shape="86.40,95.20 113.60,95.20"/>
        <lane id=":center_19_2" index="2" speed="45.00" length="27.20" shape="86.40,98.40 113.60,98.40"/>
    </edge>
    <edge id=":center_22" function="internal">
        <lane id=":center_22_0" index="0" speed="10.36" length="24.51" shape="86.40,98.40 93.05,99.35 97.80,102.20 100.65,106.95 101.60,113.60"/>
    </edge>
    <edge id=":center_23" function="internal">
        <lane id=":center_23_0" index="0" speed="3.65" length="4.67" shape="86.40,98.40 87.60,99.20 88.00,100.00 87.60,100.80 86.40,101.60"/>
    </edge>
    <edge id=":n1_0" function="internal">
        <lane id=":n1_0_0" index="0" speed="3.65" length="4.67" shape="101.60,200.00 100.80,201.20 100.00,201.60 99.20,201.20 98.40,200.00"/>
    </edge>
    <edge id=":n2_0" function="internal">
        <lane id=":n2_0_0" index="0" speed="3.65" length="4.67" shape="200.00,98.40 201.20,99.20 201.60,100.00 201.20,100.80 200.00,101.60"/>
    </edge>
    <edge id=":n3_0" function="internal">
        <lane id=":n3_0_0" index="0" speed="3.65" length="4.67" shape="98.40,-0.00 99.20,-1.20 100.00,-1.60 100.80,-1.20 101.60,0.00"/>
    </edge>
    <edge id=":n4_0" function="internal">
        <lane id=":n4_0_0" index="0" speed="3.65" length="4.67" shape="-0.00,101.60 -1.20,100.80 -1.60,100.00 -1.20,99.20 0.00,98.40"/>
    </edge>

    <edge id="center_to_east" from="center" to="n2" priority="3" type="3L45">
        <lane id="center_to_east_0" index="0" speed="45.00" length="86.40" shape="113.60,92.00 200.00,92.00"/>
        <lane id="center_to_east_1" index="1" speed="45.00" length="86.40" shape="113.60,95.20 200.00,95.20"/>
        <lane id="center_to_east_2" index="2" speed="45.00" length="86.40" shape="113.60,98.40 200.00,98.40"/>
    </edge>
    <edge id="center_to_north" from="center" to="n1" priority="3" type="3L45">
        <lane id="center_to_north_0" index="0" speed="45.00" length="86.40" shape="108.00,113.60 108.00,200.00"/>
        <lane id="center_to_north_1" index="1" speed="45.00" length="86.40" shape="104.80,113.60 104.80,200.00"/>
        <lane id="center_to_north_2" index="2" speed="45.00" length="86.40" shape="101.60,113.60 101.60,200.00"/>
    </edge>
    <edge id="center_to_south" from="center" to="n3" priority="3" type="3L45">
        <lane id="center_to_south_0" index="0" speed="45.00" length="86.40" shape="92.00,86.40 92.00,-0.00"/>
        <lane id="center_to_south_1" index="1" speed="45.00" length="86.40" shape="95.20,86.40 95.20,-0.00"/>
        <lane id="center_to_south_2" index="2" speed="45.00" length="86.40" shape="98.40,86.40 98.40,-0.00"/>
    </edge>
    <edge id="center_to_west" from="center" to="n4" priority="3" type="3L45">
        <lane id="center_to_west_0" index="0" speed="45.00" length="86.40" shape="86.40,108.00 -0.00,108.00"/>
        <lane id="center_to_west_1" index="1" speed="45.00" length="86.40" shape="86.40,104.80 -0.00,104.80"/>
        <lane id="center_to_west_2" index="2" speed="45.00" length="86.40" shape="86.40,101.60 -0.00,101.60"/>
    </edge>
    <edge id="east_to_center" from="n2" to="center" priority="3" type="3L45">
        <lane id="east_to_center_0" index="0" speed="45.00" length="86.40" shape="200.00,108.00 113.60,108.00"/>
        <lane id="east_to_center_1" index="1" speed="45.00" length="86.40" shape="200.00,104.80 113.60,104.80"/>
        <lane id="east_to_center_2" index="2" speed="45.00" length="86.40" shape="200.00,101.60 113.60,101.60"/>
    </edge>
    <edge id="north_to_center" from="n1" to="center" priority="3" type="3L45">
        <lane id="north_to_center_0" index="0" speed="45.00" length="86.40" shape="92.00,200.00 92.00,113.60"/>
        <lane id="north_to_center_1" index="1" speed="45.00" length="86.40" shape="95.20,200.00 95.20,113.60"/>
        <lane id="north_to_center_2" index="2" speed="45.00" length="86.40" shape="98.40,200.00 98.40,113.60"/>
    </edge>
    <edge id="south_to_center" from="n3" to="center" priority="3" type="3L45">
        <lane id="south_to_center_0" index="0" speed="45.00" length="86.40" shape="108.00,0.00 108.00,86.40"/>
        <lane id="south_to_center_1" index="1" speed="45.00" length="86.40" shape="104.80,0.00 104.80,86.40"/>
        <lane id="south_to_center_2" index="2" speed="45.00" length="86.40" shape="101.60,0.00 101.60,86.40"/>
    </edge>
    <edge id="west_to_center" from="n4" to="center" priority="3" type="3L45">
        <lane id="west_to_center_0" index="0" speed="45.00" length="86.40" shape="0.00,92.00 86.40,92.00"/>
        <lane id="west_to_center_1" index="1" speed="45.00" length="86.40" shape="0.00,95.20 86.40,95.20"/>
        <lane id="west_to_center_2" index="2" speed="45.00" length="86.40" shape="0.00,98.40 86.40,98.40"/>
    </edge>

    <junction id="center" type="priority" x="100.00" y="100.00" incLanes="north_to_center_0 north_to_center_1 north_to_center_2 east_to_center_0 east_to_center_1 east_to_center_2 south_to_center_0 south_to_center_1 south_to_center_2 west_to_center_0 west_to_center_1 west_to_center_2" intLanes=":center_0_0 :center_1_0 :center_1_1 :center_1_2 :center_24_0 :center_25_0 :center_6_0 :center_7_0 :center_7_1 :center_7_2 :center_10_0 :center_11_0 :center_12_0 :center_13_0 :center_13_1 :center_13_2 :center_26_0 :center_27_0 :center_18_0 :center_19_0 :center_19_1 :center_19_2 :center_22_0 :center_23_0" shape="90.40,113.60 109.60,113.60 110.04,111.38 110.60,110.60 111.38,110.04 112.38,109.71 113.60,109.60 113.60,90.40 111.38,89.96 110.60,89.40 110.04,88.62 109.71,87.62 109.60,86.40 90.40,86.40 89.96,88.62 89.40,89.40 88.62,89.96 87.62,90.29 86.40,90.40 86.40,109.60 88.62,110.04 89.40,110.60 89.96,111.38 90.29,112.38">
        <request index="0"  response="000000000000000000000000" foes="000000000000001110000000" cont="0"/>
        <request index="1"  response="000000000000000000000000" foes="011111110000011110000000" cont="0"/>
        <request index="2"  response="000000000000000000000000" foes="011111110000011110000000" cont="0"/>
        <request index="3"  response="000000000000000000000000" foes="011111110000011110000000" cont="0"/>
        <request index="4"  response="000000001110000000000000" foes="011110001110111110000000" cont="1"/>
        <request index="5"  response="010000001110000000000000" foes="010000001110000000000000" cont="1"/>
        <request index="6"  response="000000001110000000000000" foes="000000001110000000000000" cont="0"/>
        <request index="7"  response="000000011110000000011111" foes="110000011110000000011111" cont="0"/>
        <request index="8"  response="000000011110000000011111" foes="110000011110000000011111" cont="0"/>
        <request index="9"  response="000000011110000000011111" foes="110000011110000000011111" cont="0"/>
        <request index="10" response="001110011110000000011110" foes="001110111110000000011110" cont="0"/>
        <request index="11" response="001110000000000000010000" foes="001110000000000000010000" cont="0"/>
        <request index="12" response="000000000000000000000000" foes="001110000000000000000000" cont="0"/>
        <request index="13" response="000000000000000000000000" foes="011110000000011111110000" cont="0"/>
        <request index="14" response="000000000000000000000000" foes="011110000000011111110000" cont="0"/>
        <request index="15" response="000000000000000000000000" foes="011110000000011111110000" cont="0"/>
        <request index="16" response="000000000000000000001110" foes="111110000000011110001110" cont="1"/>
        <request index="17" response="000000000000010000001110" foes="000000000000010000001110" cont="1"/>
        <request index="18" response="000000000000000000001110" foes="000000000000000000001110" cont="0"/>
        <request index="19" response="000000011111000000011110" foes="000000011111110000011110" cont="0"/>
        <request index="20" response="000000011111000000011110" foes="000000011111110000011110" cont="0"/>
        <request index="21" response="000000011111000000011110" foes="000000011111110000011110" cont="0"/>
        <request index="22" response="000000011110001110011110" foes="000000011110001110111110" cont="0"/>
        <request index="23" response="000000010000001110000000" foes="000000010000001110000000" cont="0"/>
    </junction>
    <junction id="n1" type="priority" x="100.00" y="200.00" incLanes="center_to_north_0 center_to_north_1 center_to_north_2" intLanes=":n1_0_0" shape="100.00,200.00 109.60,200.00 100.00,200.00">
        <request index="0" response="0" foes="0" cont="0"/>
    </junction>
    <junction id="n2" type="priority" x="200.00" y="100.00" incLanes="center_to_east_0 center_to_east_1 center_to_east_2" intLanes=":n2_0_0" shape="200.00,100.00 200.00,90.40 200.00,100.00">
        <request index="0" response="0" foes="0" cont="0"/>
    </junction>
    <junction id="n3" type="priority" x="100.00" y="0.00" incLanes="center_to_south_0 center_to_south_1 center_to_south_2" intLanes=":n3_0_0" shape="100.00,-0.00 90.40,-0.00 100.00,-0.00">
        <request index="0" response="0" foes="0" cont="0"/>
    </junction>
    <junction id="n4" type="priority" x="0.00" y="100.00" incLanes="center_to_west_0 center_to_west_1 center_to_west_2" intLanes=":n4_0_0" shape="-0.00,100.00 -0.00,109.60 -0.00,100.00">
        <request index="0" response="0" foes="0" cont="0"/>
    </junction>

    <junction id=":center_24_0" type="internal" x="99.11" y="108.64" incLanes=":center_4_0 south_to_center_0 south_to_center_1 south_to_center_2" intLanes=":center_7_0 :center_7_1 :center_7_2 :center_10_0 :center_11_0 :center_12_0 :center_13_0 :center_13_1 :center_13_2 :center_19_0 :center_19_1 :center_19_2 :center_22_0"/>
    <junction id=":center_25_0" type="internal" x="99.20" y="112.40" incLanes=":center_5_0 east_to_center_0 south_to_center_0 south_to_center_1 south_to_center_2 west_to_center_2" intLanes=":center_6_0 :center_13_0 :center_13_1 :center_13_2 :center_22_0"/>
    <junction id=":center_26_0" type="internal" x="100.89" y="91.36" incLanes=":center_16_0 north_to_center_0 north_to_center_1 north_to_center_2" intLanes=":center_0_0 :center_1_0 :center_1_1 :center_1_2 :center_7_0 :center_7_1 :center_7_2 :center_10_0 :center_19_0 :center_19_1 :center_19_2 :center_22_0 :center_23_0"/>
    <junction id=":center_27_0" type="internal" x="100.80" y="87.60" incLanes=":center_17_0 east_to_center_2 north_to_center_0 north_to_center_1 north_to_center_2 west_to_center_0" intLanes=":center_1_0 :center_1_1 :center_1_2 :center_10_0 :center_18_0"/>

    <connection from="center_to_east" to="east_to_center" fromLane="2" toLane="2" via=":n2_0_0" dir="t" state="M"/>
    <connection from="center_to_north" to="north_to_center" fromLane="2" toLane="2" via=":n1_0_0" dir="t" state="M"/>
    <connection from="center_to_south" to="south_to_center" fromLane="2" toLane="2" via=":n3_0_0" dir="t" state="M"/>
    <connection from="center_to_west" to="west_to_center" fromLane="2" toLane="2" via=":n4_0_0" dir="t" state="M"/>
    <connection from="east_to_center" to="center_to_north" fromLane="0" toLane="0" via=":center_6_0" dir="r" state="m"/>
    <connection from="east_to_center" to="center_to_west" fromLane="0" toLane="0" via=":center_7_0" dir="s" state="m"/>
    <connection from="east_to_center" to="center_to_west" fromLane="1" toLane="1" via=":center_7_1" dir="s" state="m"/>
    <connection from="east_to_center" to="center_to_west" fromLane="2" toLane="2" via=":center_7_2" dir="s" state="m"/>
    <connection from="east_to_center" to="center_to_south" fromLane="2" toLane="2" via=":center_10_0" dir="l" state="m"/>
    <connection from="east_to_center" to="center_to_east" fromLane="2" toLane="2" via=":center_11_0" dir="t" state="m"/>
    <connection from="north_to_center" to="center_to_west" fromLane="0" toLane="0" via=":center_0_0" dir="r" state="M"/>
    <connection from="north_to_center" to="center_to_south" fromLane="0" toLane="0" via=":center_1_0" dir="s" state="M"/>
    <connection from="north_to_center" to="center_to_south" fromLane="1" toLane="1" via=":center_1_1" dir="s" state="M"/>
    <connection from="north_to_center" to="center_to_south" fromLane="2" toLane="2" via=":center_1_2" dir="s" state="M"/>
    <connection from="north_to_center" to="center_to_east" fromLane="2" toLane="2" via=":center_4_0" dir="l" state="m"/>
    <connection from="north_to_center" to="center_to_north" fromLane="2" toLane="2" via=":center_5_0" dir="t" state="m"/>
    <connection from="south_to_center" to="center_to_east" fromLane="0" toLane="0" via=":center_12_0" dir="r" state="M"/>
    <connection from="south_to_center" to="center_to_north" fromLane="0" toLane="0" via=":center_13_0" dir="s" state="M"/>
    <connection from="south_to_center" to="center_to_north" fromLane="1" toLane="1" via=":center_13_1" dir="s" state="M"/>
    <connection from="south_to_center" to="center_to_north" fromLane="2" toLane="2" via=":center_13_2" dir="s" state="M"/>
    <connection from="south_to_center" to="center_to_west" fromLane="2" toLane="2" via=":center_16_0" dir="l" state="m"/>
    <connection from="south_to_center" to="center_to_south" fromLane="2" toLane="2" via=":center_17_0" dir="t" state="m"/>
    <connection from="west_to_center" to="center_to_south" fromLane="0" toLane="0" via=":center_18_0" dir="r" state="m"/>
    <connection from="west_to_center" to="center_to_east" fromLane="0" toLane="0" via=":center_19_0" dir="s" state="m"/>
    <connection from="west_to_center" to="center_to_east" fromLane="1" toLane="1" via=":center_19_1" dir="s" state="m"/>
    <connection from="west_to_center" to="center_to_east" fromLane="2" toLane="2" via=":center_19_2" dir="s" state="m"/>
    <connection from="west_to_center" to="center_to_north" fromLane="2" toLane="2" via=":center_22_0" dir="l" state="m"/>
    <connection from="west_to_center" to="center_to_west" fromLane="2" toLane="2" via=":center_23_0" dir="t" state="m"/>

    <connection from=":center_0" to="center_to_west" fromLane="0" toLane="0" dir="r" state="M"/>
    <connection from=":center_1" to="center_to_south" fromLane="0" toLane="0" dir="s" state="M"/>
    <connection from=":center_1" to="center_to_south" fromLane="1" toLane="1" dir="s" state="M"/>
    <connection from=":center_1" to="center_to_south" fromLane="2" toLane="2" dir="s" state="M"/>
    <connection from=":center_4" to="center_to_east" fromLane="0" toLane="2" via=":center_24_0" dir="l" state="m"/>
    <connection from=":center_24" to="center_to_east" fromLane="0" toLane="2" dir="l" state="M"/>
    <connection from=":center_5" to="center_to_north" fromLane="0" toLane="2" via=":center_25_0" dir="t" state="m"/>
    <connection from=":center_25" to="center_to_north" fromLane="0" toLane="2" dir="t" state="M"/>
    <connection from=":center_6" to="center_to_north" fromLane="0" toLane="0" dir="r" state="M"/>
    <connection from=":center_7" to="center_to_west" fromLane="0" toLane="0" dir="s" state="M"/>
    <connection from=":center_7" to="center_to_west" fromLane="1" toLane="1" dir="s" state="M"/>
    <connection from=":center_7" to="center_to_west" fromLane="2" toLane="2" dir="s" state="M"/>
    <connection from=":center_10" to="center_to_south" fromLane="0" toLane="2" dir="l" state="M"/>
    <connection from=":center_11" to="center_to_east" fromLane="0" toLane="2" dir="t" state="M"/>
    <connection from=":center_12" to="center_to_east" fromLane="0" toLane="0" dir="r" state="M"/>
    <connection from=":center_13" to="center_to_north" fromLane="0" toLane="0" dir="s" state="M"/>
    <connection from=":center_13" to="center_to_north" fromLane="1" toLane="1" dir="s" state="M"/>
    <connection from=":center_13" to="center_to_north" fromLane="2" toLane="2" dir="s" state="M"/>
    <connection from=":center_16" to="center_to_west" fromLane="0" toLane="2" via=":center_26_0" dir="l" state="m"/>
    <connection from=":center_26" to="center_to_west" fromLane="0" toLane="2" dir="l" state="M"/>
    <connection from=":center_17" to="center_to_south" fromLane="0" toLane="2" via=":center_27_0" dir="t" state="m"/>
    <connection from=":center_27" to="center_to_south" fromLane="0" toLane="2" dir="t" state="M"/>
    <connection from=":center_18" to="center_to_south" fromLane="0" toLane="0" dir="r" state="M"/>
    <connection from=":center_19" to="center_to_east" fromLane="0" toLane="0" dir="s" state="M"/>
    <connection from=":center_19" to="center_to_east" fromLane="1" toLane="1" dir="s" state="M"/>
    <connection from=":center_19" to="center_to_east" fromLane="2" toLane="2" dir="s" state="M"/>
    <connection from=":center_22" to="center_to_north" fromLane="0" toLane="2" dir="l" state="M"/>
    <connection from=":center_23" to="center_to_west" fromLane="0" toLane="2" dir="t" state="M"/>
    <connection from=":n1_0" to="north_to_center" fromLane="0" toLane="2" dir="t" state="M"/>
    <connection from=":n2_0" to="east_to_center" fromLane="0" toLane="2" dir="t" state="M"/>
    <connection from=":n3_0" to="south_to_center" fromLane="0" toLane="2" dir="t" state="M"/>
    <connection from=":n4_0" to="west_to_center" fromLane="0" toLane="2" dir="t" state="M"/>

</net>
