<?xml version="1.0" encoding="UTF-8"?>

<!-- generated on 2025-02-07 13:25:25 by Eclipse SUMO netedit Version 1.20.0
<configuration xmlns:xsi="http://www.w3.org/2001/XMLSchema-instance" xsi:noNamespaceSchemaLocation="http://sumo.dlr.de/xsd/neteditConfiguration.xsd">

    <input>
        <sumo-net-file value="/Users/ull/Documents/GRA/TRAFFIC-Project/TrafficDT/sumo_files/test_nw.net.xml"/>
    </input>

    <output>
        <output-file value="/Users/ull/Documents/GRA/TRAFFIC-Project/TrafficDT/sumo_files/test_nw.net.xml"/>
        <output.street-names value="true"/>
    </output>

    <processing>
        <geometry.min-radius.fix.railways value="false"/>
        <geometry.max-grade.fix value="false"/>
        <offset.disable-normalization value="true"/>
        <lefthand value="0"/>
    </processing>

    <junctions>
        <no-turnarounds value="true"/>
        <junctions.corner-detail value="5"/>
        <junctions.limit-turn-speed value="5.50"/>
        <rectangular-lane-cut value="0"/>
    </junctions>

    <pedestrian>
        <walkingareas value="0"/>
    </pedestrian>

</configuration>
-->

<net version="1.20" junctionCornerDetail="5" limitTurnSpeed="5.50" xmlns:xsi="http://www.w3.org/2001/XMLSchema-instance" xsi:noNamespaceSchemaLocation="http://sumo.dlr.de/xsd/net_file.xsd">

    <location netOffset="-561002.52,-5274619.46" convBoundary="0.00,0.00,285.07,103.28" origBoundary="-122.188131,47.622105,-122.184329,47.623017" projParameter="+proj=utm +zone=10 +ellps=WGS84 +datum=WGS84 +units=m +no_defs"/>

    <type id="highway.secondary" priority="11" numLanes="1" speed="27.78" disallow="tram rail_urban rail rail_electric rail_fast ship container cable_car subway aircraft wheelchair scooter drone" oneway="0"/>

    <edge id=":center_0" function="internal">
        <lane id=":center_0_0" index="0" disallow="tram rail_urban rail rail_electric rail_fast ship container cable_car subway aircraft wheelchair scooter drone" speed="7.31" length="11.65" shape="195.17,87.11 191.29,87.37 188.51,88.33 186.81,90.00 186.21,92.36"/>
    </edge>
    <edge id=":center_1" function="internal">
        <lane id=":center_1_0" index="0" disallow="tram rail_urban rail rail_electric rail_fast ship container cable_car subway aircraft wheelchair scooter drone" speed="13.41" length="30.21" shape="195.23,83.91 185.49,83.58 178.13,83.05 171.76,82.26 165.01,81.19"/>
        <lane id=":center_1_1" index="1" disallow="tram rail_urban rail rail_electric rail_fast ship container cable_car subway aircraft wheelchair scooter drone" speed="13.41" length="30.21" shape="195.28,80.71 185.66,80.39 178.40,79.86 172.10,79.08 165.38,78.01"/>
    </edge>
    <edge id=":center_3" function="internal">
        <lane id=":center_3_0" index="0" disallow="tram rail_urban rail rail_electric rail_fast ship container cable_car subway aircraft wheelchair scooter drone" speed="10.29" length="8.07" shape="195.33,77.51 188.81,76.48 187.55,75.72"/>
    </edge>
    <edge id=":center_4" function="internal">
        <lane id=":center_4_0" index="0" disallow="tram rail_urban rail rail_electric rail_fast ship container cable_car subway aircraft wheelchair scooter drone" speed="3.96" length="2.52" shape="195.33,77.51 193.84,76.48 193.53,75.84"/>
    </edge>
    <edge id=":center_18" function="internal">
        <lane id=":center_18_0" index="0" disallow="tram rail_urban rail rail_electric rail_fast ship container cable_car subway aircraft wheelchair scooter drone" speed="10.29" length="15.71" shape="187.55,75.72 184.15,73.68 181.36,69.12 180.43,62.79"/>
    </edge>
    <edge id=":center_19" function="internal">
        <lane id=":center_19_0" index="0" disallow="tram rail_urban rail rail_electric rail_fast ship container cable_car subway aircraft wheelchair scooter drone" speed="3.96" length="3.36" shape="193.53,75.84 193.35,75.46 193.87,74.46 195.40,73.48"/>
    </edge>
    <edge id=":center_5" function="internal">
        <lane id=":center_5_0" index="0" disallow="tram rail_urban rail rail_electric rail_fast ship container cable_car subway aircraft wheelchair scooter drone" speed="6.89" length="10.12" shape="190.03,63.16 190.37,66.24 191.38,68.46 193.08,69.80 195.45,70.28"/>
    </edge>
    <edge id=":center_6" function="internal">
        <lane id=":center_6_0" index="0" disallow="tram rail_urban rail rail_electric rail_fast ship container cable_car subway aircraft wheelchair scooter drone" speed="13.41" length="29.54" shape="190.03,63.16 189.46,72.53 188.20,79.54 186.89,85.65 186.21,92.36"/>
        <lane id=":center_6_1" index="1" disallow="tram rail_urban rail rail_electric rail_fast ship container cable_car subway aircraft wheelchair scooter drone" speed="13.41" length="29.54" shape="186.83,63.04 186.26,72.43 185.00,79.45 183.69,85.59 183.01,92.30"/>
    </edge>
    <edge id=":center_8" function="internal">
        <lane id=":center_8_0" index="0" disallow="tram rail_urban rail rail_electric rail_fast ship container cable_car subway aircraft wheelchair scooter drone" speed="10.47" length="8.34" shape="183.63,62.91 182.49,70.65 182.20,71.08"/>
    </edge>
    <edge id=":center_20" function="internal">
        <lane id=":center_20_0" index="0" disallow="tram rail_urban rail rail_electric rail_fast ship container cable_car subway aircraft wheelchair scooter drone" speed="10.47" length="19.82" shape="182.20,71.08 179.06,75.75 173.36,78.20 165.38,78.01"/>
    </edge>
    <edge id=":center_9" function="internal">
        <lane id=":center_9_0" index="0" disallow="tram rail_urban rail rail_electric rail_fast ship container cable_car subway aircraft wheelchair scooter drone" speed="7.51" length="13.46" shape="166.57,67.66 171.23,67.82 174.56,67.04 176.56,65.32 177.23,62.66"/>
    </edge>
    <edge id=":center_10" function="internal">
        <lane id=":center_10_0" index="0" disallow="tram rail_urban rail rail_electric rail_fast ship container cable_car subway aircraft wheelchair scooter drone" speed="13.41" length="29.17" shape="166.57,67.66 175.75,68.76 182.66,69.54 188.74,70.04 195.45,70.28"/>
        <lane id=":center_10_1" index="1" disallow="tram rail_urban rail rail_electric rail_fast ship container cable_car subway aircraft wheelchair scooter drone" speed="13.41" length="29.17" shape="166.21,70.84 175.50,71.95 182.51,72.74 188.66,73.24 195.40,73.48"/>
    </edge>
    <edge id=":center_12" function="internal">
        <lane id=":center_12_0" index="0" disallow="tram rail_urban rail rail_electric rail_fast ship container cable_car subway aircraft wheelchair scooter drone" speed="11.47" length="9.50" shape="165.84,74.02 173.48,75.93 174.82,76.85"/>
    </edge>
    <edge id=":center_13" function="internal">
        <lane id=":center_13_0" index="0" disallow="tram rail_urban rail rail_electric rail_fast ship container cable_car subway aircraft wheelchair scooter drone" speed="3.97" length="2.53" shape="165.84,74.02 167.22,75.19 167.47,75.87"/>
    </edge>
    <edge id=":center_21" function="internal">
        <lane id=":center_21_0" index="0" disallow="tram rail_urban rail rail_electric rail_fast ship container cable_car subway aircraft wheelchair scooter drone" speed="11.47" length="18.52" shape="174.82,76.85 178.89,79.62 182.06,85.08 183.01,92.30"/>
    </edge>
    <edge id=":center_22" function="internal">
        <lane id=":center_22_0" index="0" disallow="tram rail_urban rail rail_electric rail_fast ship container cable_car subway aircraft wheelchair scooter drone" speed="3.97" length="3.34" shape="167.47,75.87 167.61,76.25 166.99,77.19 165.38,78.01"/>
    </edge>
    <edge id=":center_14" function="internal">
        <lane id=":center_14_0" index="0" disallow="tram rail_urban rail rail_electric rail_fast ship container cable_car subway aircraft wheelchair scooter drone" speed="8.14" length="13.11" shape="170.21,92.05 169.97,87.64 169.02,84.36 167.37,82.21 165.01,81.19"/>
    </edge>
    <edge id=":center_15" function="internal">
        <lane id=":center_15_0" index="0" disallow="tram rail_urban rail rail_electric rail_fast ship container cable_car subway aircraft wheelchair scooter drone" speed="13.41" length="29.71" shape="173.41,92.12 174.14,82.66 175.44,75.57 176.68,69.40 177.23,62.66"/>
        <lane id=":center_15_1" index="1" disallow="tram rail_urban rail rail_electric rail_fast ship container cable_car subway aircraft wheelchair scooter drone" speed="13.41" length="29.71" shape="176.61,92.18 177.34,82.74 178.64,75.68 179.88,69.51 180.43,62.79"/>
    </edge>
    <edge id=":center_17" function="internal">
        <lane id=":center_17_0" index="0" disallow="tram rail_urban rail rail_electric rail_fast ship container cable_car subway aircraft wheelchair scooter drone" speed="11.01" length="10.32" shape="179.81,92.24 180.93,83.94 181.81,82.21"/>
    </edge>
    <edge id=":center_23" function="internal">
        <lane id=":center_23_0" index="0" disallow="tram rail_urban rail rail_electric rail_fast ship container cable_car subway aircraft wheelchair scooter drone" speed="11.01" length="17.37" shape="181.81,82.21 183.91,78.04 188.73,74.56 195.40,73.48"/>
    </edge>
    <edge id=":n1_0" function="internal">
        <lane id=":n1_0_0" index="0" disallow="tram rail_urban rail rail_electric rail_fast ship container cable_car subway aircraft wheelchair scooter drone" speed="3.65" length="4.67" shape="182.78,103.31 181.95,104.50 181.15,104.88 180.36,104.46 179.58,103.25"/>
    </edge>
    <edge id=":n2_0" function="internal">
        <lane id=":n2_0_0" index="0" disallow="tram rail_urban rail rail_electric rail_fast ship container cable_car subway aircraft wheelchair scooter drone" speed="13.41" length="7.98" shape="234.06,84.93 231.67,85.38 230.09,86.04 228.51,86.64 226.11,86.94"/>
        <lane id=":n2_0_1" index="1" disallow="tram rail_urban rail rail_electric rail_fast ship container cable_car subway aircraft wheelchair scooter drone" speed="13.41" length="7.98" shape="233.79,81.74 231.46,82.19 229.92,82.84 228.38,83.45 226.05,83.75"/>
        <lane id=":n2_0_2" index="2" disallow="tram rail_urban rail rail_electric rail_fast ship container cable_car subway aircraft wheelchair scooter drone" speed="13.41" length="7.98" shape="233.52,78.55 231.25,78.99 229.76,79.64 228.26,80.25 225.99,80.55"/>
        <lane id=":n2_0_3" index="3" disallow="tram rail_urban rail rail_electric rail_fast ship container cable_car subway aircraft wheelchair scooter drone" speed="13.41" length="7.98" shape="233.52,78.55 231.26,78.49 229.73,78.04 228.19,77.55 225.92,77.35"/>
    </edge>
    <edge id=":n5_0" function="internal">
        <lane id=":n5_0_0" index="0" disallow="tram rail_urban rail rail_electric rail_fast ship container cable_car subway aircraft wheelchair scooter drone" speed="3.65" length="4.67" shape="180.98,20.38 181.81,19.20 182.62,18.82 183.41,19.24 184.18,20.46"/>
    </edge>

    <edge id="513238757" from="n3" to="n2" name="Northeast 12th Street" priority="11" type="highway.secondary" spreadType="center" shape="258.32,79.26 247.50,80.58 229.91,82.07">
        <lane id="513238757_0" index="0" disallow="tram rail_urban rail rail_electric rail_fast ship container cable_car subway aircraft wheelchair scooter drone" speed="13.41" length="24.66" shape="258.71,82.44 247.83,83.76 234.06,84.93">
            <param key="origId" value="513238757"/>
        </lane>
        <lane id="513238757_1" index="1" disallow="tram rail_urban rail rail_electric rail_fast ship container cable_car subway aircraft wheelchair scooter drone" speed="13.41" length="24.66" shape="258.32,79.26 247.50,80.58 233.79,81.74">
            <param key="origId" value="513238757"/>
        </lane>
        <lane id="513238757_2" index="2" disallow="tram rail_urban rail rail_electric rail_fast ship container cable_car subway aircraft wheelchair scooter drone" speed="13.41" length="24.66" shape="257.93,76.08 247.17,77.40 233.52,78.55">
            <param key="origId" value="513238757"/>
        </lane>
    </edge>
    <edge id="center_to_east" from="center" to="n7" name="Northeast 12th Street" priority="11" type="highway.secondary" spreadType="center" shape="181.62,81.62 168.20,80.10 156.85,78.22 134.23,73.00 112.78,66.92 92.20,59.96 73.50,51.25 49.98,37.15 0.00,0.00">
        <lane id="center_to_east_0" index="0" disallow="tram rail_urban rail rail_electric rail_fast ship container cable_car subway aircraft wheelchair scooter drone" speed="13.41" length="186.02" shape="165.01,81.19 156.54,79.79 133.83,74.55 112.31,68.45 91.60,61.45 72.75,52.67 49.09,38.48 -0.95,1.28">
            <param key="origId" value="160183267"/>
        </lane>
        <lane id="center_to_east_1" index="1" disallow="tram rail_urban rail rail_electric rail_fast ship container cable_car subway aircraft wheelchair scooter drone" speed="13.41" length="186.02" shape="165.38,78.01 157.16,76.65 134.63,71.45 113.25,65.39 92.80,58.47 74.25,49.83 50.87,35.82 0.95,-1.28">
            <param key="origId" value="160183267"/>
        </lane>
        <param key="origFrom" value="53190763"/>
    </edge>
    <edge id="center_to_north" from="center" to="n5" name="116th Avenue Northeast" priority="11" type="highway.secondary" shape="181.75,71.66 182.03,64.49 182.04,44.56 182.58,20.42">
        <lane id="center_to_north_0" index="0" disallow="tram rail_urban rail rail_electric rail_fast ship container cable_car subway aircraft wheelchair scooter drone" speed="13.41" length="42.38" shape="177.23,62.66 177.24,44.51 177.78,20.31">
            <param key="origId" value="428067750"/>
        </lane>
        <lane id="center_to_north_1" index="1" disallow="tram rail_urban rail rail_electric rail_fast ship container cable_car subway aircraft wheelchair scooter drone" speed="13.41" length="42.38" shape="180.43,62.79 180.44,44.54 180.98,20.38">
            <param key="origId" value="428067750"/>
        </lane>
        <param key="origFrom" value="5896114911"/>
    </edge>
    <edge id="center_to_south" from="center" to="n1" name="116th Avenue Northeast" priority="11" type="highway.secondary" length="11.02" shape="181.62,81.62 181.45,90.38 181.18,103.28">
        <lane id="center_to_south_0" index="0" disallow="tram rail_urban rail rail_electric rail_fast ship container cable_car subway aircraft wheelchair scooter drone" speed="13.41" length="11.02" shape="186.21,92.36 185.98,103.38">
            <param key="origId" value="428067754"/>
        </lane>
        <lane id="center_to_south_1" index="1" disallow="tram rail_urban rail rail_electric rail_fast ship container cable_car subway aircraft wheelchair scooter drone" speed="13.41" length="11.02" shape="183.01,92.30 182.78,103.31">
            <param key="origId" value="428067754"/>
        </lane>
        <param key="origFrom" value="53190763"/>
    </edge>
    <edge id="center_to_west" from="center" to="n4" name="Northeast 12th Street" priority="11" type="highway.secondary" spreadType="center" shape="181.75,71.66 192.39,71.83 203.94,72.02 218.65,71.86 236.76,70.58 251.92,68.85 268.67,66.14 279.20,64.06 285.07,62.93">
        <lane id="center_to_west_0" index="0" disallow="tram rail_urban rail rail_electric rail_fast ship container cable_car subway aircraft wheelchair scooter drone" speed="13.41" length="90.32" shape="195.45,70.28 203.94,70.42 218.58,70.26 236.61,68.99 251.70,67.26 268.39,64.56 278.89,62.49 284.77,61.36">
            <param key="origId" value="378376408"/>
        </lane>
        <lane id="center_to_west_1" index="1" disallow="tram rail_urban rail rail_electric rail_fast ship container cable_car subway aircraft wheelchair scooter drone" speed="13.41" length="90.32" shape="195.40,73.48 203.94,73.62 218.72,73.46 236.91,72.17 252.14,70.44 268.95,67.72 279.51,65.63 285.37,64.50">
            <param key="origId" value="378376408"/>
        </lane>
        <param key="origFrom" value="5896114911"/>
    </edge>
    <edge id="east_to_center" from="n6" to="center" name="Northeast 12th Street" priority="11" type="highway.secondary" spreadType="center" shape="16.73,1.34 49.92,26.89 67.73,38.46 103.50,54.77 136.88,64.80 159.14,70.01 168.50,71.11 181.75,71.66">
        <lane id="east_to_center_0" index="0" disallow="tram rail_urban rail rail_electric rail_fast ship container cable_car subway aircraft wheelchair scooter drone" speed="13.41" length="167.27" shape="18.68,-1.20 51.77,24.28 69.27,35.65 104.63,51.77 137.71,61.71 159.69,66.85 166.57,67.66">
            <param key="origId" value="378376405"/>
        </lane>
        <lane id="east_to_center_1" index="1" disallow="tram rail_urban rail rail_electric rail_fast ship container cable_car subway aircraft wheelchair scooter drone" speed="13.41" length="167.27" shape="16.73,1.34 49.92,26.89 67.73,38.46 103.50,54.77 136.88,64.80 159.14,70.01 166.21,70.84">
            <param key="origId" value="378376405"/>
        </lane>
        <lane id="east_to_center_2" index="2" disallow="tram rail_urban rail rail_electric rail_fast ship container cable_car subway aircraft wheelchair scooter drone" speed="13.41" length="167.27" shape="14.78,3.88 48.07,29.50 66.19,41.27 102.37,57.77 136.05,67.89 158.59,73.17 165.84,74.02">
            <param key="origId" value="378376405"/>
        </lane>
        <param key="origTo" value="5896114911"/>
    </edge>
    <edge id="north_to_center" from="n5" to="center" name="116th Avenue Northeast" priority="11" type="highway.secondary" shape="182.58,20.42 182.04,44.56 182.03,64.49 181.75,71.66">
        <lane id="north_to_center_0" index="0" disallow="tram rail_urban rail rail_electric rail_fast ship container cable_car subway aircraft wheelchair scooter drone" speed="13.41" length="42.52" shape="190.58,20.60 190.04,44.65 190.03,63.16">
            <param key="origId" value="428067750"/>
        </lane>
        <lane id="north_to_center_1" index="1" disallow="tram rail_urban rail rail_electric rail_fast ship container cable_car subway aircraft wheelchair scooter drone" speed="13.41" length="42.52" shape="187.38,20.53 186.84,44.61 186.83,63.04">
            <param key="origId" value="428067750"/>
        </lane>
        <lane id="north_to_center_2" index="2" disallow="tram rail_urban rail rail_electric rail_fast ship container cable_car subway aircraft wheelchair scooter drone" speed="13.41" length="42.52" shape="184.18,20.46 183.64,44.58 183.63,62.91">
            <param key="origId" value="428067750"/>
        </lane>
        <param key="origTo" value="5896114911"/>
    </edge>
    <edge id="south_to_center" from="n1" to="center" name="116th Avenue Northeast" priority="11" type="highway.secondary" length="11.02" shape="181.18,103.28 181.45,90.38 181.62,81.62">
        <lane id="south_to_center_0" index="0" disallow="tram rail_urban rail rail_electric rail_fast ship container cable_car subway aircraft wheelchair scooter drone" speed="13.41" length="11.02" shape="169.98,103.05 170.21,92.05">
            <param key="origId" value="428067754"/>
        </lane>
        <lane id="south_to_center_1" index="1" disallow="tram rail_urban rail rail_electric rail_fast ship container cable_car subway aircraft wheelchair scooter drone" speed="13.41" length="11.02" shape="173.18,103.11 173.41,92.12">
            <param key="origId" value="428067754"/>
        </lane>
        <lane id="south_to_center_2" index="2" disallow="tram rail_urban rail rail_electric rail_fast ship container cable_car subway aircraft wheelchair scooter drone" speed="13.41" length="11.02" shape="176.38,103.18 176.61,92.18">
            <param key="origId" value="428067754"/>
        </lane>
        <lane id="south_to_center_3" index="3" disallow="tram rail_urban rail rail_electric rail_fast ship container cable_car subway aircraft wheelchair scooter drone" speed="13.41" length="11.02" shape="179.58,103.25 179.81,92.24">
            <param key="origId" value="428067754"/>
        </lane>
        <param key="origTo" value="53190763"/>
    </edge>
    <edge id="west_to_center" from="n2" to="center" name="Northeast 12th Street" priority="11" type="highway.secondary" spreadType="center" shape="229.91,82.07 213.93,82.38 197.93,82.36 192.43,82.25 181.62,81.62">
        <lane id="west_to_center_0" index="0" disallow="tram rail_urban rail rail_electric rail_fast ship container cable_car subway aircraft wheelchair scooter drone" speed="13.41" length="30.77" shape="226.11,86.94 213.97,87.18 197.88,87.16 195.17,87.11">
            <param key="origId" value="428067759"/>
        </lane>
        <lane id="west_to_center_1" index="1" disallow="tram rail_urban rail rail_electric rail_fast ship container cable_car subway aircraft wheelchair scooter drone" speed="13.41" length="30.77" shape="226.05,83.75 213.94,83.98 197.91,83.96 195.23,83.91">
            <param key="origId" value="428067759"/>
        </lane>
        <lane id="west_to_center_2" index="2" disallow="tram rail_urban rail rail_electric rail_fast ship container cable_car subway aircraft wheelchair scooter drone" speed="13.41" length="30.77" shape="225.99,80.55 213.92,80.78 197.95,80.76 195.28,80.71">
            <param key="origId" value="428067759"/>
        </lane>
        <lane id="west_to_center_3" index="3" disallow="tram rail_urban rail rail_electric rail_fast ship container cable_car subway aircraft wheelchair scooter drone" speed="13.41" length="30.77" shape="225.92,77.35 213.89,77.58 197.98,77.56 195.33,77.51">
            <param key="origId" value="428067759"/>
        </lane>
        <param key="origTo" value="53190763"/>
    </edge>

    <tlLogic id="center" type="actuated" programID="0" offset="0">
        <phase duration="33" state="GGGggrrrrGGGggrrrr" minDur="5" maxDur="50"/>
        <phase duration="3"  state="yyyggrrrryyyggrrrr"/>
        <phase duration="6"  state="rrrGGrrrrrrrGGrrrr" minDur="5" maxDur="50"/>
        <phase duration="3"  state="rrryyrrrrrrryyrrrr"/>
        <phase duration="33" state="rrrrrGGGgrrrrrGGGg" minDur="5" maxDur="50"/>
        <phase duration="3"  state="rrrrryyygrrrrryyyg"/>
        <phase duration="6"  state="rrrrrrrrGrrrrrrrrG" minDur="5" maxDur="50"/>
        <phase duration="3"  state="rrrrrrrryrrrrrrrry"/>
    </tlLogic>

    <junction id="center" type="traffic_light" x="181.68" y="76.64" incLanes="west_to_center_0 west_to_center_1 west_to_center_2 west_to_center_3 north_to_center_0 north_to_center_1 north_to_center_2 east_to_center_0 east_to_center_1 east_to_center_2 south_to_center_0 south_to_center_1 south_to_center_2 south_to_center_3" intLanes=":center_0_0 :center_1_0 :center_1_1 :center_18_0 :center_19_0 :center_5_0 :center_6_0 :center_6_1 :center_20_0 :center_9_0 :center_10_0 :center_10_1 :center_21_0 :center_22_0 :center_14_0 :center_15_0 :center_15_1 :center_23_0" shape="195.15,88.71 195.48,68.68 193.34,68.05 192.59,67.28 192.06,66.23 191.74,64.87 191.63,63.22 175.63,62.60 174.64,64.99 173.41,65.73 171.69,66.15 169.47,66.27 166.76,66.07 164.83,82.79 167.01,84.10 167.76,85.42 168.27,87.18 168.56,89.38 168.61,92.02 187.81,92.40 188.66,90.28 189.68,89.56 191.11,89.05 192.93,88.77">
        <request index="0"  response="000000000000000000" foes="000000000011000000" cont="0"/>
        <request index="1"  response="100000000100000000" foes="111111000111000000" cont="0"/>
        <request index="2"  response="100000000100000000" foes="111111000111000000" cont="0"/>
        <request index="3"  response="100000110100000000" foes="111000110111000000" cont="1"/>
        <request index="4"  response="100000110000000000" foes="100000110000000000" cont="1"/>
        <request index="5"  response="000000110000000000" foes="000000110000000000" cont="0"/>
        <request index="6"  response="000001110000001111" foes="100001110000001111" cont="0"/>
        <request index="7"  response="000001110000001111" foes="100001110000001111" cont="0"/>
        <request index="8"  response="011001110000001110" foes="011011110000001110" cont="1"/>
        <request index="9"  response="000000000000000000" foes="011000000000000000" cont="0"/>
        <request index="10" response="100000000100000000" foes="111000000111111000" cont="0"/>
        <request index="11" response="100000000100000000" foes="111000000111111000" cont="0"/>
        <request index="12" response="100000000100000110" foes="111000000111000110" cont="1"/>
        <request index="13" response="000000000100000110" foes="000000000100000110" cont="1"/>
        <request index="14" response="000000000000000110" foes="000000000000000110" cont="0"/>
        <request index="15" response="000001111000001110" foes="000001111100001110" cont="0"/>
        <request index="16" response="000001111000001110" foes="000001111100001110" cont="0"/>
        <request index="17" response="000001110011001110" foes="000001110011011110" cont="1"/>
        <param key="origEdgeIds" value="-624380954 624380954"/>
        <param key="origId" value="53190763 5896114911"/>
    </junction>
    <junction id="n1" type="priority" x="181.18" y="103.28" incLanes="center_to_south_0 center_to_south_1" intLanes=":n1_0_0" shape="181.18,103.28 187.58,103.41 181.18,103.28">
        <request index="0" response="0" foes="0" cont="0"/>
    </junction>
    <junction id="n2" type="priority" x="229.91" y="82.07" incLanes="513238757_0 513238757_1 513238757_2" intLanes=":n2_0_0 :n2_0_1 :n2_0_2 :n2_0_3" shape="234.20,86.52 233.39,76.96 230.61,76.77 229.64,76.45 228.68,76.10 227.50,75.83 225.89,75.75 226.14,88.54 229.15,88.06 230.17,87.64 231.19,87.19 232.45,86.79">
        <request index="0" response="0000" foes="0000" cont="0"/>
        <request index="1" response="0000" foes="0000" cont="0"/>
        <request index="2" response="0000" foes="0000" cont="0"/>
        <request index="3" response="0000" foes="0000" cont="0"/>
    </junction>
    <junction id="n3" type="dead_end" x="258.32" y="79.26" incLanes="" intLanes="" shape="257.74,74.50 258.90,84.02"/>
    <junction id="n4" type="dead_end" x="285.07" y="62.93" incLanes="center_to_west_0 center_to_west_1" intLanes="" shape="284.47,59.79 285.67,66.07"/>
    <junction id="n5" type="priority" x="182.58" y="20.42" incLanes="center_to_north_0 center_to_north_1" intLanes=":n5_0_0" shape="182.58,20.42 176.18,20.28 182.58,20.42">
        <request index="0" response="0" foes="0" cont="0"/>
    </junction>
    <junction id="n6" type="dead_end" x="16.73" y="1.34" incLanes="" intLanes="" shape="13.80,5.14 19.66,-2.46"/>
    <junction id="n7" type="dead_end" x="0.00" y="0.00" incLanes="center_to_east_0 center_to_east_1" intLanes="" shape="-1.91,2.57 1.91,-2.57"/>

    <junction id=":center_18_0" type="internal" x="187.55" y="75.72" incLanes=":center_3_0 east_to_center_0 east_to_center_1" intLanes=":center_6_0 :center_6_1 :center_8_0 :center_9_0 :center_10_0 :center_10_1 :center_15_0 :center_15_1 :center_17_0"/>
    <junction id=":center_19_0" type="internal" x="193.53" y="75.84" incLanes=":center_4_0 east_to_center_0 east_to_center_1 north_to_center_0 south_to_center_3" intLanes=":center_5_0 :center_10_0 :center_10_1 :center_17_0"/>
    <junction id=":center_20_0" type="internal" x="182.20" y="71.08" incLanes=":center_8_0 south_to_center_0 south_to_center_1 south_to_center_2" intLanes=":center_1_0 :center_1_1 :center_3_0 :center_10_0 :center_10_1 :center_12_0 :center_13_0 :center_14_0 :center_15_0 :center_15_1"/>
    <junction id=":center_21_0" type="internal" x="174.82" y="76.85" incLanes=":center_12_0 west_to_center_0 west_to_center_1 west_to_center_2" intLanes=":center_0_0 :center_1_0 :center_1_1 :center_6_0 :center_6_1 :center_8_0 :center_15_0 :center_15_1 :center_17_0"/>
    <junction id=":center_22_0" type="internal" x="167.47" y="75.87" incLanes=":center_13_0 north_to_center_2 south_to_center_0 west_to_center_1 west_to_center_2" intLanes=":center_1_0 :center_1_1 :center_8_0 :center_14_0"/>
    <junction id=":center_23_0" type="internal" x="181.81" y="82.21" incLanes=":center_17_0 north_to_center_0 north_to_center_1" intLanes=":center_1_0 :center_1_1 :center_3_0 :center_4_0 :center_5_0 :center_6_0 :center_6_1 :center_10_0 :center_10_1 :center_12_0"/>

    <connection from="513238757" to="west_to_center" fromLane="0" toLane="0" via=":n2_0_0" dir="s" state="M"/>
    <connection from="513238757" to="west_to_center" fromLane="1" toLane="1" via=":n2_0_1" dir="s" state="M"/>
    <connection from="513238757" to="west_to_center" fromLane="2" toLane="2" via=":n2_0_2" dir="s" state="M"/>
    <connection from="513238757" to="west_to_center" fromLane="2" toLane="3" via=":n2_0_3" dir="s" state="M"/>
    <connection from="center_to_north" to="north_to_center" fromLane="1" toLane="2" via=":n5_0_0" dir="t" state="M"/>
    <connection from="center_to_south" to="south_to_center" fromLane="1" toLane="3" via=":n1_0_0" dir="t" state="M"/>
    <connection from="east_to_center" to="center_to_north" fromLane="0" toLane="0" via=":center_9_0" tl="center" linkIndex="9" dir="r" state="O"/>
    <connection from="east_to_center" to="center_to_west" fromLane="0" toLane="0" via=":center_10_0" tl="center" linkIndex="10" dir="s" state="O"/>
    <connection from="east_to_center" to="center_to_west" fromLane="1" toLane="1" via=":center_10_1" tl="center" linkIndex="11" dir="s" state="O"/>
    <connection from="east_to_center" to="center_to_south" fromLane="2" toLane="1" via=":center_12_0" tl="center" linkIndex="12" dir="l" state="o"/>
    <connection from="east_to_center" to="center_to_east" fromLane="2" toLane="1" via=":center_13_0" tl="center" linkIndex="13" dir="t" state="o"/>
    <connection from="north_to_center" to="center_to_west" fromLane="0" toLane="0" via=":center_5_0" tl="center" linkIndex="5" dir="r" state="o"/>
    <connection from="north_to_center" to="center_to_south" fromLane="0" toLane="0" via=":center_6_0" tl="center" linkIndex="6" dir="s" state="o"/>
    <connection from="north_to_center" to="center_to_south" fromLane="1" toLane="1" via=":center_6_1" tl="center" linkIndex="7" dir="s" state="o"/>
    <connection from="north_to_center" to="center_to_east" fromLane="2" toLane="1" via=":center_8_0" tl="center" linkIndex="8" dir="l" state="o"/>