<?xml version="1.0" encoding="UTF-8"?>

<!-- generated on 2025-01-07 19:40:43 by Eclipse SUMO netedit Version 1.20.0
<configuration xmlns:xsi="http://www.w3.org/2001/XMLSchema-instance" xsi:noNamespaceSchemaLocation="http://sumo.dlr.de/xsd/neteditConfiguration.xsd">

    <input>
        <sumo-net-file value="/Users/ull/Documents/GRA/TRAFFIC-Project/TrafficDT/sumo_files/simple_nw_se.net.xml"/>
    </input>

    <processing>
        <geometry.min-radius.fix.railways value="false"/>
        <geometry.max-grade.fix value="false"/>
        <offset.disable-normalization value="true"/>
        <lefthand value="0"/>
    </processing>

    <junctions>
        <no-turnarounds value="true"/>
        <junctions.corner-detail value="5"/>
        <junctions.limit-turn-speed value="5.50"/>
        <rectangular-lane-cut value="0"/>
    </junctions>

    <pedestrian>
        <walkingareas value="0"/>
    </pedestrian>

</configuration>
-->

<additional xmlns:xsi="http://www.w3.org/2001/XMLSchema-instance" xsi:noNamespaceSchemaLocation="http://sumo.dlr.de/xsd/additional_file.xsd">
    <tlLogic id="center" type="static" programID="0" offset="0">
        <phase duration="45" state="GGGrrrrrrrGGGrrrrrrr"/>
        <phase duration="9"  state="yyyrrrrrrryyyrrrrrrr"/>
        <phase duration="6"  state="rrrGGrrrrrrrrGGrrrrr"/>
        <phase duration="9"  state="rrryyrrrrrrrryyrrrrr"/>
        <phase duration="45" state="rrrrrGGGrrrrrrrGGGrr"/>
        <phase duration="9"  state="rrrrryyyrrrrrrryyyrr"/>
        <phase duration="6"  state="rrrrrrrrGGrrrrrrrrGG"/>
        <phase duration="9"  state="rrrrrrrryyrrrrrrrryy"/>
    </tlLogic>
</additional>
