<?xml version='1.0' encoding='utf-8'?>
<routes><vType id="vType_car_20.945776671074867" accel="1.0" decel="5.0" sigma="0.0" length="4.5" maxSpeed="5.818271297520797" /><vType id="vType_car_21.715403729380423" accel="1.0" decel="5.0" sigma="0.0" length="4.5" maxSpeed="6.032056591494562" /><vType id="vType_car_42.353811736753364" accel="1.0" decel="5.0" sigma="0.0" length="4.5" maxSpeed="11.764947704653713" /><vType id="vType_car_32.00867273259105" accel="1.0" decel="5.0" sigma="0.0" length="4.5" maxSpeed="8.891297981275292" /><vType id="vType_car_5.75126639427306" accel="1.0" decel="5.0" sigma="0.0" length="4.5" maxSpeed="1.5975739984091832" /><vType id="vType_car_16.486343740510332" accel="1.0" decel="5.0" sigma="0.0" length="4.5" maxSpeed="4.579539927919536" /><vType id="vType_car_4.776243621720529" accel="1.0" decel="5.0" sigma="0.0" length="4.5" maxSpeed="1.3267343393668136" /><vType id="vType_car_4.536261805091252" accel="1.0" decel="5.0" sigma="0.0" length="4.5" maxSpeed="1.2600727236364588" /><vType id="vType_car_14.732049395157995" accel="1.0" decel="5.0" sigma="0.0" length="4.5" maxSpeed="4.092235943099443" /><vType id="vType_car_18.777653563277763" accel="1.0" decel="5.0" sigma="0.0" length="4.5" maxSpeed="5.216014878688267" /><vType id="vType_car_24.38545154270174" accel="1.0" decel="5.0" sigma="0.0" length="4.5" maxSpeed="6.773736539639373" /><vType id="vType_car_22.38604352233881" accel="1.0" decel="5.0" sigma="0.0" length="4.5" maxSpeed="6.2183454228718915" /><vType id="vType_car_23.75907268055274" accel="1.0" decel="5.0" sigma="0.0" length="4.5" maxSpeed="6.59974241126465" /><vType id="vType_car_25.729384569686463" accel="1.0" decel="5.0" sigma="0.0" length="4.5" maxSpeed="7.147051269357351" /><vType id="vType_car_30.462474088051234" accel="1.0" decel="5.0" sigma="0.0" length="4.5" maxSpeed="8.46179835779201" /><vType id="vType_car_4.201529606995213" accel="1.0" decel="5.0" sigma="0.0" length="4.5" maxSpeed="1.1670915574986702" /><vType id="vType_car_23.45486849215839" accel="1.0" decel="5.0" sigma="0.0" length="4.5" maxSpeed="6.515241247821775" /><vType id="vType_car_24.10220533989853" accel="1.0" decel="5.0" sigma="0.0" length="4.5" maxSpeed="6.6950570388607025" /><vType id="vType_car_4.3070807165074125" accel="1.0" decel="5.0" sigma="0.0" length="4.5" maxSpeed="1.196411310140948" /><vType id="vType_car_9.569842797530038" accel="1.0" decel="5.0" sigma="0.0" length="4.5" maxSpeed="2.658289665980566" /><vType id="vType_car_5.284383013195582" accel="1.0" decel="5.0" sigma="0.0" length="4.5" maxSpeed="1.467884170332106" /><vType id="vType_car_5.218437830817732" accel="1.0" decel="5.0" sigma="0.0" length="4.5" maxSpeed="1.4495660641160366" /><vType id="vType_car_5.898823102989923" accel="1.0" decel="5.0" sigma="0.0" length="4.5" maxSpeed="1.6385619730527565" /><vType id="vType_car_40.08065860602806" accel="1.0" decel="5.0" sigma="0.0" length="4.5" maxSpeed="11.13351627945224" /><vType id="vType_car_4.9209211156217165" accel="1.0" decel="5.0" sigma="0.0" length="4.5" maxSpeed="1.3669225321171434" /><vType id="vType_car_8.461046462161478" accel="1.0" decel="5.0" sigma="0.0" length="4.5" maxSpeed="2.350290683933744" /><vType id="vType_car_64.5583375449054" accel="1.0" decel="5.0" sigma="0.0" length="4.5" maxSpeed="17.9328715402515" /><vType id="vType_car_5.3110327151635754" accel="1.0" decel="5.0" sigma="0.0" length="4.5" maxSpeed="1.4752868653232154" /><vType id="vType_car_4.820874581466667" accel="1.0" decel="5.0" sigma="0.0" length="4.5" maxSpeed="1.3391318281851852" /><vType id="vType_car_5.027466908607749" accel="1.0" decel="5.0" sigma="0.0" length="4.5" maxSpeed="1.3965185857243745" /><route id="route_north_to_east" edges="north_to_center center_to_east" /><route id="route_north_to_south" edges="north_to_center center_to_south" /><route id="route_north_to_west" edges="north_to_center center_to_west" /><route id="route_east_to_west" edges="east_to_center center_to_west" /><route id="route_east_to_south" edges="east_to_center center_to_south" /><route id="route_east_to_north" edges="east_to_center center_to_north" /><route id="route_south_to_west" edges="south_to_center center_to_west" /><route id="route_south_to_north" edges="south_to_center center_to_north" /><route id="route_south_to_east" edges="south_to_center center_to_east" /><route id="route_west_to_south" edges="west_to_center center_to_south" /><route id="route_west_to_north" edges="west_to_center center_to_north" /><route id="route_west_to_east" edges="west_to_center center_to_east" /><vehicle id="veh1" type="vType_car_20.945776671074867" route="route_south_to_north" depart="0.03" /><vehicle id="veh2" type="vType_car_21.715403729380423" route="route_east_to_south" depart="0.03" /><vehicle id="veh3" type="vType_car_42.353811736753364" route="route_east_to_west" depart="0.03" /><vehicle id="veh4" type="vType_car_32.00867273259105" route="route_east_to_west" depart="0.03" /><vehicle id="veh6" type="vType_car_16.486343740510332" route="route_north_to_south" depart="1.31" /><vehicle id="veh9" type="vType_car_14.732049395157995" route="route_west_to_east" depart="15.16" /><vehicle id="veh10" type="vType_car_18.777653563277763" route="route_west_to_east" depart="19.18" /><vehicle id="veh13" type="vType_car_24.38545154270174" route="route_west_to_north" depart="19.65" /><vehicle id="veh12" type="vType_car_22.38604352233881" route="route_west_to_east" depart="19.88" /><vehicle id="veh14" type="vType_car_23.75907268055274" route="route_west_to_east" depart="21.79" /><vehicle id="veh15" type="vType_car_25.729384569686463" route="route_west_to_north" depart="22.40" /><vehicle id="veh16" type="vType_car_30.462474088051234" route="route_west_to_east" depart="26.05" /><vehicle id="veh22" type="vType_car_23.45486849215839" route="route_east_to_west" depart="35.00" /><vehicle id="veh24" type="vType_car_24.10220533989853" route="route_east_to_west" depart="35.47" /></routes>