<?xml version='1.0' encoding='utf-8'?>
<routes><vType id="vType_car_3.157839236445492" accel="1.0" decel="5.0" sigma="0.0" length="4.5" maxSpeed="0.8771775656793034" /><vType id="vType_car_28.081484995078604" accel="1.0" decel="5.0" sigma="0.0" length="4.5" maxSpeed="7.800412498632945" /><vType id="vType_car_5.509994311151368" accel="1.0" decel="5.0" sigma="0.0" length="4.5" maxSpeed="1.5305539753198243" /><vType id="vType_car_2.8151181232267977" accel="1.0" decel="5.0" sigma="0.0" length="4.5" maxSpeed="0.7819772564518882" /><vType id="vType_car_10.818899039052223" accel="1.0" decel="5.0" sigma="0.0" length="4.5" maxSpeed="3.0052497330700616" /><vType id="vType_car_3.0125812229891182" accel="1.0" decel="5.0" sigma="0.0" length="4.5" maxSpeed="0.8368281174969773" /><vType id="vType_car_6.476452783419572" accel="1.0" decel="5.0" sigma="0.0" length="4.5" maxSpeed="1.7990146620609921" /><vType id="vType_car_4.9765584120136195" accel="1.0" decel="5.0" sigma="0.0" length="4.5" maxSpeed="1.38237733667045" /><vType id="vType_car_12.333030280647929" accel="1.0" decel="5.0" sigma="0.0" length="4.5" maxSpeed="3.4258417446244245" /><vType id="vType_car_3.6046625705381663" accel="1.0" decel="5.0" sigma="0.0" length="4.5" maxSpeed="1.001295158482824" /><vType id="vType_car_12.160883081338481" accel="1.0" decel="5.0" sigma="0.0" length="4.5" maxSpeed="3.378023078149578" /><vType id="vType_car_2.6985022510292116" accel="1.0" decel="5.0" sigma="0.0" length="4.5" maxSpeed="0.7495839586192254" /><vType id="vType_car_24.51909479912137" accel="1.0" decel="5.0" sigma="0.0" length="4.5" maxSpeed="6.810859666422602" /><vType id="vType_car_3.688786194794689" accel="1.0" decel="5.0" sigma="0.0" length="4.5" maxSpeed="1.0246628318874136" /><vType id="vType_car_8.554074824105614" accel="1.0" decel="5.0" sigma="0.0" length="4.5" maxSpeed="2.376131895584893" /><vType id="vType_car_6.71338292842887" accel="1.0" decel="5.0" sigma="0.0" length="4.5" maxSpeed="1.8648285912302416" /><vType id="vType_car_4.035872611691035" accel="1.0" decel="5.0" sigma="0.0" length="4.5" maxSpeed="1.1210757254697319" /><vType id="vType_car_58.50546801892703" accel="1.0" decel="5.0" sigma="0.0" length="4.5" maxSpeed="16.251518894146397" /><vType id="vType_car_5.808722085848543" accel="1.0" decel="5.0" sigma="0.0" length="4.5" maxSpeed="1.6135339127357062" /><vType id="vType_car_28.186305624697702" accel="1.0" decel="5.0" sigma="0.0" length="4.5" maxSpeed="7.829529340193806" /><vType id="vType_car_34.56430927526475" accel="1.0" decel="5.0" sigma="0.0" length="4.5" maxSpeed="9.601197020906874" /><vType id="vType_car_39.73436632132389" accel="1.0" decel="5.0" sigma="0.0" length="4.5" maxSpeed="11.037323978145524" /><vType id="vType_car_10.471583002082038" accel="1.0" decel="5.0" sigma="0.0" length="4.5" maxSpeed="2.9087730561338994" /><vType id="vType_car_33.936037353702346" accel="1.0" decel="5.0" sigma="0.0" length="4.5" maxSpeed="9.426677042695095" /><vType id="vType_car_49.930451627590195" accel="1.0" decel="5.0" sigma="0.0" length="4.5" maxSpeed="13.869569896552832" /><vType id="vType_car_3.053079384329505" accel="1.0" decel="5.0" sigma="0.0" length="4.5" maxSpeed="0.8480776067581958" /><vType id="vType_car_40.818609919427146" accel="1.0" decel="5.0" sigma="0.0" length="4.5" maxSpeed="11.33850275539643" /><vType id="vType_car_37.125516621567016" accel="1.0" decel="5.0" sigma="0.0" length="4.5" maxSpeed="10.312643505990838" /><vType id="vType_car_9.550884135894501" accel="1.0" decel="5.0" sigma="0.0" length="4.5" maxSpeed="2.653023371081806" /><vType id="vType_car_1.8956262389917153" accel="1.0" decel="5.0" sigma="0.0" length="4.5" maxSpeed="0.5265628441643654" /><vType id="vType_car_39.3303585047111" accel="1.0" decel="5.0" sigma="0.0" length="4.5" maxSpeed="10.925099584641972" /><vType id="vType_car_33.248717801123824" accel="1.0" decel="5.0" sigma="0.0" length="4.5" maxSpeed="9.235754944756618" /><vType id="vType_car_32.32408166822506" accel="1.0" decel="5.0" sigma="0.0" length="4.5" maxSpeed="8.978911574506961" /><vType id="vType_car_30.84015840955356" accel="1.0" decel="5.0" sigma="0.0" length="4.5" maxSpeed="8.566710669320432" /><vType id="vType_car_3.8311997190899265" accel="1.0" decel="5.0" sigma="0.0" length="4.5" maxSpeed="1.0642221441916462" /><vType id="vType_car_5.50389791402879" accel="1.0" decel="5.0" sigma="0.0" length="4.5" maxSpeed="1.5288605316746637" /><vType id="vType_car_2.3272447983994513" accel="1.0" decel="5.0" sigma="0.0" length="4.5" maxSpeed="0.646456888444292" /><vType id="vType_car_1.862837028371318" accel="1.0" decel="5.0" sigma="0.0" length="4.5" maxSpeed="0.5174547301031439" /><vType id="vType_car_3.3372961237654803" accel="1.0" decel="5.0" sigma="0.0" length="4.5" maxSpeed="0.9270267010459667" /><vType id="vType_car_2.630813387248411" accel="1.0" decel="5.0" sigma="0.0" length="4.5" maxSpeed="0.7307814964578919" /><vType id="vType_bus_25.102037703780443" accel="1.0" decel="5.0" sigma="0.0" length="13" maxSpeed="6.9727882510501225" /><vType id="vType_car_6.186282514517781" accel="1.0" decel="5.0" sigma="0.0" length="4.5" maxSpeed="1.7184118095882723" /><vType id="vType_car_2.766589646096017" accel="1.0" decel="5.0" sigma="0.0" length="4.5" maxSpeed="0.7684971239155602" /><vType id="vType_car_9.371028644368643" accel="1.0" decel="5.0" sigma="0.0" length="4.5" maxSpeed="2.603063512324623" /><vType id="vType_car_3.9080026014349456" accel="1.0" decel="5.0" sigma="0.0" length="4.5" maxSpeed="1.0855562781763737" /><vType id="vType_car_2.195706068330172" accel="1.0" decel="5.0" sigma="0.0" length="4.5" maxSpeed="0.6099183523139367" /><vType id="vType_car_18.88798217299954" accel="1.0" decel="5.0" sigma="0.0" length="4.5" maxSpeed="5.246661714722094" /><vType id="vType_car_10.09971178272355" accel="1.0" decel="5.0" sigma="0.0" length="4.5" maxSpeed="2.805475495200986" /><vType id="vType_car_17.59490973313515" accel="1.0" decel="5.0" sigma="0.0" length="4.5" maxSpeed="4.887474925870875" /><vType id="vType_car_2.4193693857093814" accel="1.0" decel="5.0" sigma="0.0" length="4.5" maxSpeed="0.6720470515859392" /><vType id="vType_car_2.680419504946048" accel="1.0" decel="5.0" sigma="0.0" length="4.5" maxSpeed="0.7445609735961245" /><vType id="vType_car_14.679421647343784" accel="1.0" decel="5.0" sigma="0.0" length="4.5" maxSpeed="4.077617124262162" /><vType id="vType_car_15.007024010569985" accel="1.0" decel="5.0" sigma="0.0" length="4.5" maxSpeed="4.168617780713885" /><vType id="vType_car_24.55088251775151" accel="1.0" decel="5.0" sigma="0.0" length="4.5" maxSpeed="6.819689588264309" /><vType id="vType_car_11.758540131031522" accel="1.0" decel="5.0" sigma="0.0" length="4.5" maxSpeed="3.266261147508756" /><vType id="vType_car_15.697086743413157" accel="1.0" decel="5.0" sigma="0.0" length="4.5" maxSpeed="4.360301873170322" /><vType id="vType_car_21.699201812079654" accel="1.0" decel="5.0" sigma="0.0" length="4.5" maxSpeed="6.027556058911014" /><vType id="vType_car_12.075444552511797" accel="1.0" decel="5.0" sigma="0.0" length="4.5" maxSpeed="3.354290153475499" /><vType id="vType_car_45.577490669798216" accel="1.0" decel="5.0" sigma="0.0" length="4.5" maxSpeed="12.660414074943949" /><vType id="vType_car_13.784786048327428" accel="1.0" decel="5.0" sigma="0.0" length="4.5" maxSpeed="3.8291072356465077" /><vType id="vType_car_3.7782911564888004" accel="1.0" decel="5.0" sigma="0.0" length="4.5" maxSpeed="1.049525321246889" /><vType id="vType_car_6.0648438498630055" accel="1.0" decel="5.0" sigma="0.0" length="4.5" maxSpeed="1.684678847184168" /><vType id="vType_car_3.7782273002104745" accel="1.0" decel="5.0" sigma="0.0" length="4.5" maxSpeed="1.0495075833917984" /><vType id="vType_car_50.23636090809658" accel="1.0" decel="5.0" sigma="0.0" length="4.5" maxSpeed="13.954544696693494" /><vType id="vType_car_24.603161118465298" accel="1.0" decel="5.0" sigma="0.0" length="4.5" maxSpeed="6.834211421795916" /><vType id="vType_car_7.221164868005784" accel="1.0" decel="5.0" sigma="0.0" length="4.5" maxSpeed="2.0058791300016066" /><vType id="vType_car_3.9125485990299684" accel="1.0" decel="5.0" sigma="0.0" length="4.5" maxSpeed="1.0868190552861023" /><vType id="vType_car_9.52394050107294" accel="1.0" decel="5.0" sigma="0.0" length="4.5" maxSpeed="2.645539028075816" /><vType id="vType_car_14.148362081717615" accel="1.0" decel="5.0" sigma="0.0" length="4.5" maxSpeed="3.930100578254893" /><vType id="vType_car_4.473002602400082" accel="1.0" decel="5.0" sigma="0.0" length="4.5" maxSpeed="1.2425007228889116" /><vType id="vType_car_13.322778805351934" accel="1.0" decel="5.0" sigma="0.0" length="4.5" maxSpeed="3.7007718903755373" /><vType id="vType_car_3.3826622704292695" accel="1.0" decel="5.0" sigma="0.0" length="4.5" maxSpeed="0.9396284084525748" /><vType id="vType_car_2.9725132565712804" accel="1.0" decel="5.0" sigma="0.0" length="4.5" maxSpeed="0.8256981268253556" /><vType id="vType_car_9.332761855359808" accel="1.0" decel="5.0" sigma="0.0" length="4.5" maxSpeed="2.5924338487110576" /><vType id="vType_car_14.427118603156746" accel="1.0" decel="5.0" sigma="0.0" length="4.5" maxSpeed="4.007532945321318" /><vType id="vType_car_2.4701693268714435" accel="1.0" decel="5.0" sigma="0.0" length="4.5" maxSpeed="0.6861581463531787" /><vType id="vType_car_18.499325352110006" accel="1.0" decel="5.0" sigma="0.0" length="4.5" maxSpeed="5.138701486697224" /><vType id="vType_car_18.030923574775294" accel="1.0" decel="5.0" sigma="0.0" length="4.5" maxSpeed="5.008589881882026" /><vType id="vType_car_22.371089322014665" accel="1.0" decel="5.0" sigma="0.0" length="4.5" maxSpeed="6.214191478337407" /><vType id="vType_car_4.065892052349555" accel="1.0" decel="5.0" sigma="0.0" length="4.5" maxSpeed="1.1294144589859874" /><vType id="vType_car_3.1578445059990132" accel="1.0" decel="5.0" sigma="0.0" length="4.5" maxSpeed="0.8771790294441704" /><vType id="vType_car_16.514966124238864" accel="1.0" decel="5.0" sigma="0.0" length="4.5" maxSpeed="4.587490590066351" /><vType id="vType_car_31.738426333062502" accel="1.0" decel="5.0" sigma="0.0" length="4.5" maxSpeed="8.816229536961806" /><vType id="vType_car_25.354852469645508" accel="1.0" decel="5.0" sigma="0.0" length="4.5" maxSpeed="7.043014574901529" /><vType id="vType_car_30.31115754551382" accel="1.0" decel="5.0" sigma="0.0" length="4.5" maxSpeed="8.419765984864949" /><vType id="vType_car_0.15369942478311205" accel="1.0" decel="5.0" sigma="0.0" length="4.5" maxSpeed="0.04269428466197557" /><vType id="vType_car_2.387396685739962" accel="1.0" decel="5.0" sigma="0.0" length="4.5" maxSpeed="0.6631657460388783" /><vType id="vType_car_14.305436970629561" accel="1.0" decel="5.0" sigma="0.0" length="4.5" maxSpeed="3.9737324918415444" /><vType id="vType_car_36.41949203294579" accel="1.0" decel="5.0" sigma="0.0" length="4.5" maxSpeed="10.116525564707164" /><vType id="vType_car_26.311113253802166" accel="1.0" decel="5.0" sigma="0.0" length="4.5" maxSpeed="7.308642570500601" /><vType id="vType_car_2.443820854051481" accel="1.0" decel="5.0" sigma="0.0" length="4.5" maxSpeed="0.6788391261254114" /><vType id="vType_car_37.180150760928434" accel="1.0" decel="5.0" sigma="0.0" length="4.5" maxSpeed="10.327819655813453" /><vType id="vType_car_29.203937224594995" accel="1.0" decel="5.0" sigma="0.0" length="4.5" maxSpeed="8.112204784609721" /><vType id="vType_car_11.365206920108855" accel="1.0" decel="5.0" sigma="0.0" length="4.5" maxSpeed="3.15700192225246" /><vType id="vType_car_41.98230695457693" accel="1.0" decel="5.0" sigma="0.0" length="4.5" maxSpeed="11.661751931826924" /><vType id="vType_car_2.7665896460960164" accel="1.0" decel="5.0" sigma="0.0" length="4.5" maxSpeed="0.7684971239155601" /><vType id="vType_car_9.976265456571332" accel="1.0" decel="5.0" sigma="0.0" length="4.5" maxSpeed="2.771184849047592" /><vType id="vType_car_4.233795370732254" accel="1.0" decel="5.0" sigma="0.0" length="4.5" maxSpeed="1.1760542696478484" /><vType id="vType_car_47.93412267056115" accel="1.0" decel="5.0" sigma="0.0" length="4.5" maxSpeed="13.315034075155875" /><vType id="vType_car_3.4582370576200203" accel="1.0" decel="5.0" sigma="0.0" length="4.5" maxSpeed="0.96062140489445" /><route id="route_north_to_east" edges="north_to_center center_to_east" /><route id="route_north_to_south" edges="north_to_center center_to_south" /><route id="route_north_to_west" edges="north_to_center center_to_west" /><route id="route_east_to_west" edges="east_to_center center_to_west" /><route id="route_east_to_south" edges="east_to_center center_to_south" /><route id="route_east_to_north" edges="east_to_center center_to_north" /><route id="route_south_to_west" edges="south_to_center center_to_west" /><route id="route_south_to_north" edges="south_to_center center_to_north" /><route id="route_south_to_east" edges="south_to_center center_to_east" /><route id="route_west_to_south" edges="west_to_center center_to_south" /><route id="route_west_to_north" edges="west_to_center center_to_north" /><route id="route_west_to_east" edges="west_to_center center_to_east" /><vehicle id="veh816" type="vType_car_28.081484995078604" route="route_east_to_west" depart="0.05" /><vehicle id="veh919" type="vType_car_10.818899039052223" route="route_north_to_south" depart="0.05" /><vehicle id="veh886" type="vType_car_24.51909479912137" route="route_east_to_west" depart="0.14" /><vehicle id="veh932" type="vType_car_8.554074824105614" route="route_north_to_east" depart="1.32" /><vehicle id="veh939" type="vType_car_58.50546801892703" route="route_west_to_east" depart="2.41" /><vehicle id="veh941" type="vType_car_28.186305624697702" route="route_east_to_west" depart="3.69" /><vehicle id="veh945" type="vType_car_10.471583002082038" route="route_south_to_north" depart="6.51" /><vehicle id="veh946" type="vType_car_33.936037353702346" route="route_east_to_west" depart="8.02" /><vehicle id="veh948" type="vType_car_49.930451627590195" route="route_west_to_east" depart="8.43" /><vehicle id="veh953" type="vType_car_40.818609919427146" route="route_west_to_east" depart="11.84" /><vehicle id="veh955" type="vType_car_37.125516621567016" route="route_east_to_west" depart="12.07" /><vehicle id="veh957" type="vType_car_9.550884135894501" route="route_south_to_north" depart="12.16" /><vehicle id="veh959" type="vType_car_39.3303585047111" route="route_east_to_west" depart="14.35" /><vehicle id="veh960" type="vType_car_33.248717801123824" route="route_east_to_west" depart="14.48" /><vehicle id="veh961" type="vType_car_32.32408166822506" route="route_west_to_south" depart="16.08" /><vehicle id="veh965" type="vType_car_30.84015840955356" route="route_west_to_east" depart="19.22" /><vehicle id="veh977" type="vType_bus_25.102037703780443" route="route_north_to_west" depart="32.29" /><vehicle id="veh983" type="vType_car_9.371028644368643" route="route_south_to_north" depart="36.57" /><vehicle id="veh987" type="vType_car_18.88798217299954" route="route_east_to_south" depart="42.86" /><vehicle id="veh988" type="vType_car_10.09971178272355" route="route_south_to_east" depart="42.95" /><vehicle id="veh989" type="vType_car_17.59490973313515" route="route_east_to_south" depart="43.99" /><vehicle id="veh993" type="vType_car_14.679421647343784" route="route_south_to_east" depart="44.45" /><vehicle id="veh995" type="vType_car_15.007024010569985" route="route_east_to_south" depart="46.59" /><vehicle id="veh996" type="vType_car_24.55088251775151" route="route_south_to_west" depart="46.73" /><vehicle id="veh998" type="vType_car_11.758540131031522" route="route_east_to_south" depart="47.46" /><vehicle id="veh1004" type="vType_car_21.699201812079654" route="route_south_to_east" depart="51.28" /><vehicle id="veh1005" type="vType_car_12.075444552511797" route="route_north_to_south" depart="53.15" /><vehicle id="veh1006" type="vType_car_45.577490669798216" route="route_east_to_west" depart="54.01" /><vehicle id="veh1008" type="vType_car_13.784786048327428" route="route_south_to_east" depart="55.06" /><vehicle id="veh1014" type="vType_car_50.23636090809658" route="route_east_to_west" depart="62.03" /><vehicle id="veh1016" type="vType_car_24.603161118465298" route="route_east_to_south" depart="63.03" /><vehicle id="veh1020" type="vType_car_9.52394050107294" route="route_south_to_east" depart="72.78" /><vehicle id="veh1021" type="vType_car_14.148362081717615" route="route_north_to_east" depart="72.96" /><vehicle id="veh1025" type="vType_car_13.322778805351934" route="route_north_to_west" depart="76.60" /><vehicle id="veh1032" type="vType_car_9.332761855359808" route="route_north_to_south" depart="91.86" /><vehicle id="veh1033" type="vType_car_14.427118603156746" route="route_north_to_west" depart="93.64" /><vehicle id="veh1035" type="vType_car_18.499325352110006" route="route_north_to_south" depart="96.05" /><vehicle id="veh1036" type="vType_car_18.030923574775294" route="route_north_to_south" depart="97.10" /><vehicle id="veh1038" type="vType_car_22.371089322014665" route="route_south_to_north" depart="98.15" /><vehicle id="veh1041" type="vType_car_16.514966124238864" route="route_north_to_south" depart="100.65" /><vehicle id="veh1043" type="vType_car_31.738426333062502" route="route_north_to_south" depart="101.79" /><vehicle id="veh1044" type="vType_car_25.354852469645508" route="route_south_to_north" depart="102.15" /><vehicle id="veh1045" type="vType_car_30.31115754551382" route="route_south_to_north" depart="103.20" /><vehicle id="veh1051" type="vType_car_14.305436970629561" route="route_north_to_west" depart="105.75" /><vehicle id="veh1054" type="vType_car_26.311113253802166" route="route_south_to_north" depart="107.62" /><vehicle id="veh1056" type="vType_car_37.180150760928434" route="route_north_to_south" depart="109.85" /><vehicle id="veh1058" type="vType_car_11.365206920108855" route="route_north_to_west" depart="110.03" /><vehicle id="veh1059" type="vType_car_41.98230695457693" route="route_south_to_north" depart="111.44" /></routes>