<?xml version='1.0' encoding='utf-8'?>
<routes><vType id="vType_car_14.091370735372744" accel="1.0" decel="5.0" sigma="0.0" length="4.5" maxSpeed="3.914269648714651" /><vType id="vType_car_27.623483709276552" accel="1.0" decel="5.0" sigma="0.0" length="4.5" maxSpeed="7.6731899192434865" /><vType id="vType_car_14.215490389393848" accel="1.0" decel="5.0" sigma="0.0" length="4.5" maxSpeed="3.94874733038718" /><vType id="vType_car_7.361705779749769" accel="1.0" decel="5.0" sigma="0.0" length="4.5" maxSpeed="2.0449182721527137" /><vType id="vType_car_25.769905229607367" accel="1.0" decel="5.0" sigma="0.0" length="4.5" maxSpeed="7.158307008224268" /><vType id="vType_car_7.05596721246406" accel="1.0" decel="5.0" sigma="0.0" length="4.5" maxSpeed="1.9599908923511276" /><vType id="vType_car_30.195370251706464" accel="1.0" decel="5.0" sigma="0.0" length="4.5" maxSpeed="8.38760284769624" /><vType id="vType_car_4.2558676314961525" accel="1.0" decel="5.0" sigma="0.0" length="4.5" maxSpeed="1.1821854531933758" /><vType id="vType_car_35.11716429683513" accel="1.0" decel="5.0" sigma="0.0" length="4.5" maxSpeed="9.75476786023198" /><vType id="vType_car_7.095670154302321" accel="1.0" decel="5.0" sigma="0.0" length="4.5" maxSpeed="1.9710194873062004" /><vType id="vType_car_42.13601469766355" accel="1.0" decel="5.0" sigma="0.0" length="4.5" maxSpeed="11.704448527128763" /><vType id="vType_car_3.357003538406551" accel="1.0" decel="5.0" sigma="0.0" length="4.5" maxSpeed="0.9325009828907086" /><vType id="vType_car_21.53605343189504" accel="1.0" decel="5.0" sigma="0.0" length="4.5" maxSpeed="5.98223706441529" /><vType id="vType_car_26.31892382178735" accel="1.0" decel="5.0" sigma="0.0" length="4.5" maxSpeed="7.310812172718708" /><vType id="vType_car_3.715954404771418" accel="1.0" decel="5.0" sigma="0.0" length="4.5" maxSpeed="1.0322095568809495" /><vType id="vType_car_30.120852899556816" accel="1.0" decel="5.0" sigma="0.0" length="4.5" maxSpeed="8.366903583210226" /><vType id="vType_car_4.527346561241057" accel="1.0" decel="5.0" sigma="0.0" length="4.5" maxSpeed="1.2575962670114047" /><vType id="vType_car_3.3842232563972985" accel="1.0" decel="5.0" sigma="0.0" length="4.5" maxSpeed="0.9400620156659162" /><vType id="vType_car_1.8161047923415328" accel="1.0" decel="5.0" sigma="0.0" length="4.5" maxSpeed="0.5044735534282035" /><vType id="vType_car_6.209932838615879" accel="1.0" decel="5.0" sigma="0.0" length="4.5" maxSpeed="1.7249813440599664" /><vType id="vType_car_21.517511337152623" accel="1.0" decel="5.0" sigma="0.0" length="4.5" maxSpeed="5.977086482542395" /><vType id="vType_car_26.062968264057368" accel="1.0" decel="5.0" sigma="0.0" length="4.5" maxSpeed="7.239713406682602" /><vType id="vType_car_25.934534406107495" accel="1.0" decel="5.0" sigma="0.0" length="4.5" maxSpeed="7.204037335029859" /><vType id="vType_car_27.908476372692387" accel="1.0" decel="5.0" sigma="0.0" length="4.5" maxSpeed="7.752354547970107" /><vType id="vType_car_43.894861310270365" accel="1.0" decel="5.0" sigma="0.0" length="4.5" maxSpeed="12.193017030630656" /><vType id="vType_car_16.167919145334498" accel="1.0" decel="5.0" sigma="0.0" length="4.5" maxSpeed="4.491088651481805" /><vType id="vType_car_17.83068419177335" accel="1.0" decel="5.0" sigma="0.0" length="4.5" maxSpeed="4.952967831048153" /><vType id="vType_car_50.4418561826474" accel="1.0" decel="5.0" sigma="0.0" length="4.5" maxSpeed="14.011626717402056" /><vType id="vType_car_34.310373115648204" accel="1.0" decel="5.0" sigma="0.0" length="4.5" maxSpeed="9.530659198791168" /><vType id="vType_car_30.99193190220245" accel="1.0" decel="5.0" sigma="0.0" length="4.5" maxSpeed="8.608869972834013" /><vType id="vType_car_65.78884107333221" accel="1.0" decel="5.0" sigma="0.0" length="4.5" maxSpeed="18.274678075925614" /><vType id="vType_car_73.35999226810803" accel="1.0" decel="5.0" sigma="0.0" length="4.5" maxSpeed="20.37777563003001" /><vType id="vType_car_38.58781632040554" accel="1.0" decel="5.0" sigma="0.0" length="4.5" maxSpeed="10.718837866779316" /><vType id="vType_car_64.12705328335488" accel="1.0" decel="5.0" sigma="0.0" length="4.5" maxSpeed="17.81307035648747" /><vType id="vType_car_62.42797661220348" accel="1.0" decel="5.0" sigma="0.0" length="4.5" maxSpeed="17.341104614500967" /><vType id="vType_car_4.481501143715834" accel="1.0" decel="5.0" sigma="0.0" length="4.5" maxSpeed="1.2448614288099538" /><vType id="vType_car_68.21604063961145" accel="1.0" decel="5.0" sigma="0.0" length="4.5" maxSpeed="18.948900177669845" /><vType id="vType_car_10.033435542410341" accel="1.0" decel="5.0" sigma="0.0" length="4.5" maxSpeed="2.787065428447317" /><vType id="vType_car_15.255432496700315" accel="1.0" decel="5.0" sigma="0.0" length="4.5" maxSpeed="4.23762013797231" /><vType id="vType_car_3.445315016736598" accel="1.0" decel="5.0" sigma="0.0" length="4.5" maxSpeed="0.9570319490934993" /><vType id="vType_car_30.379602139586186" accel="1.0" decel="5.0" sigma="0.0" length="4.5" maxSpeed="8.438778372107274" /><vType id="vType_car_15.86613181206347" accel="1.0" decel="5.0" sigma="0.0" length="4.5" maxSpeed="4.4072588366842975" /><vType id="vType_car_25.794898780413927" accel="1.0" decel="5.0" sigma="0.0" length="4.5" maxSpeed="7.165249661226091" /><vType id="vType_car_6.29270226140576" accel="1.0" decel="5.0" sigma="0.0" length="4.5" maxSpeed="1.747972850390489" /><vType id="vType_car_10.556106736863182" accel="1.0" decel="5.0" sigma="0.0" length="4.5" maxSpeed="2.932251871350884" /><vType id="vType_car_18.387492596368578" accel="1.0" decel="5.0" sigma="0.0" length="4.5" maxSpeed="5.107636832324605" /><vType id="vType_car_9.287565385848469" accel="1.0" decel="5.0" sigma="0.0" length="4.5" maxSpeed="2.579879273846797" /><vType id="vType_car_3.9663969625739877" accel="1.0" decel="5.0" sigma="0.0" length="4.5" maxSpeed="1.1017769340483299" /><vType id="vType_car_27.46943775566433" accel="1.0" decel="5.0" sigma="0.0" length="4.5" maxSpeed="7.630399376573425" /><vType id="vType_car_16.96832585707608" accel="1.0" decel="5.0" sigma="0.0" length="4.5" maxSpeed="4.713423849187801" /><vType id="vType_car_28.890016262010437" accel="1.0" decel="5.0" sigma="0.0" length="4.5" maxSpeed="8.02500451722512" /><vType id="vType_car_17.87595517578592" accel="1.0" decel="5.0" sigma="0.0" length="4.5" maxSpeed="4.965543104384977" /><vType id="vType_car_24.036446776849935" accel="1.0" decel="5.0" sigma="0.0" length="4.5" maxSpeed="6.676790771347204" /><vType id="vType_car_11.224631220568705" accel="1.0" decel="5.0" sigma="0.0" length="4.5" maxSpeed="3.11795311682464" /><vType id="vType_car_32.024638821208775" accel="1.0" decel="5.0" sigma="0.0" length="4.5" maxSpeed="8.895733005891326" /><vType id="vType_car_26.659656705712983" accel="1.0" decel="5.0" sigma="0.0" length="4.5" maxSpeed="7.405460196031384" /><vType id="vType_car_18.28678977256698" accel="1.0" decel="5.0" sigma="0.0" length="4.5" maxSpeed="5.07966382571305" /><vType id="vType_car_34.2127696942838" accel="1.0" decel="5.0" sigma="0.0" length="4.5" maxSpeed="9.503547137301055" /><vType id="vType_car_13.802222497536404" accel="1.0" decel="5.0" sigma="0.0" length="4.5" maxSpeed="3.833950693760112" /><vType id="vType_car_13.870385173947216" accel="1.0" decel="5.0" sigma="0.0" length="4.5" maxSpeed="3.8528847705408933" /><vType id="vType_car_30.590764672558418" accel="1.0" decel="5.0" sigma="0.0" length="4.5" maxSpeed="8.497434631266227" /><vType id="vType_car_16.969981079705867" accel="1.0" decel="5.0" sigma="0.0" length="4.5" maxSpeed="4.71388363325163" /><vType id="vType_car_31.96809163929512" accel="1.0" decel="5.0" sigma="0.0" length="4.5" maxSpeed="8.880025455359755" /><vType id="vType_car_17.061686558118733" accel="1.0" decel="5.0" sigma="0.0" length="4.5" maxSpeed="4.739357377255204" /><vType id="vType_car_20.118582209083947" accel="1.0" decel="5.0" sigma="0.0" length="4.5" maxSpeed="5.588495058078874" /><vType id="vType_car_18.761124770835703" accel="1.0" decel="5.0" sigma="0.0" length="4.5" maxSpeed="5.211423547454362" /><vType id="vType_car_17.72232587931921" accel="1.0" decel="5.0" sigma="0.0" length="4.5" maxSpeed="4.922868299810892" /><vType id="vType_car_25.88758126163781" accel="1.0" decel="5.0" sigma="0.0" length="4.5" maxSpeed="7.1909947948993915" /><vType id="vType_car_29.536405915963165" accel="1.0" decel="5.0" sigma="0.0" length="4.5" maxSpeed="8.204557198878657" /><vType id="vType_car_17.65105333686696" accel="1.0" decel="5.0" sigma="0.0" length="4.5" maxSpeed="4.903070371351933" /><vType id="vType_car_18.360158042488433" accel="1.0" decel="5.0" sigma="0.0" length="4.5" maxSpeed="5.100043900691231" /><vType id="vType_car_20.334250308438957" accel="1.0" decel="5.0" sigma="0.0" length="4.5" maxSpeed="5.648402863455265" /><vType id="vType_car_12.077156454834693" accel="1.0" decel="5.0" sigma="0.0" length="4.5" maxSpeed="3.3547656818985256" /><vType id="vType_car_22.46840908743305" accel="1.0" decel="5.0" sigma="0.0" length="4.5" maxSpeed="6.24122474650918" /><vType id="vType_car_17.741267581629394" accel="1.0" decel="5.0" sigma="0.0" length="4.5" maxSpeed="4.928129883785942" /><vType id="vType_car_3.881165459702225" accel="1.0" decel="5.0" sigma="0.0" length="4.5" maxSpeed="1.0781015165839514" /><vType id="vType_car_20.74099813884307" accel="1.0" decel="5.0" sigma="0.0" length="4.5" maxSpeed="5.761388371900853" /><vType id="vType_car_4.718109330151931" accel="1.0" decel="5.0" sigma="0.0" length="4.5" maxSpeed="1.310585925042203" /><vType id="vType_car_18.129072673825576" accel="1.0" decel="5.0" sigma="0.0" length="4.5" maxSpeed="5.035853520507104" /><vType id="vType_car_14.790469498662267" accel="1.0" decel="5.0" sigma="0.0" length="4.5" maxSpeed="4.108463749628408" /><vType id="vType_car_4.398538371239514" accel="1.0" decel="5.0" sigma="0.0" length="4.5" maxSpeed="1.2218162142331983" /><vType id="vType_car_3.50528955088956" accel="1.0" decel="5.0" sigma="0.0" length="4.5" maxSpeed="0.9736915419137666" /><vType id="vType_car_4.439449652140409" accel="1.0" decel="5.0" sigma="0.0" length="4.5" maxSpeed="1.2331804589278914" /><vType id="vType_car_16.15873694409671" accel="1.0" decel="5.0" sigma="0.0" length="4.5" maxSpeed="4.488538040026864" /><vType id="vType_car_27.360564648861153" accel="1.0" decel="5.0" sigma="0.0" length="4.5" maxSpeed="7.600156846905875" /><vType id="vType_car_21.572439443142937" accel="1.0" decel="5.0" sigma="0.0" length="4.5" maxSpeed="5.992344289761927" /><vType id="vType_car_5.405194675808221" accel="1.0" decel="5.0" sigma="0.0" length="4.5" maxSpeed="1.5014429655022834" /><vType id="vType_car_15.777468776377418" accel="1.0" decel="5.0" sigma="0.0" length="4.5" maxSpeed="4.382630215660394" /><vType id="vType_car_0.6868593304618822" accel="1.0" decel="5.0" sigma="0.0" length="4.5" maxSpeed="0.19079425846163395" /><vType id="vType_car_24.18174198079493" accel="1.0" decel="5.0" sigma="0.0" length="4.5" maxSpeed="6.717150550220813" /><vType id="vType_car_14.515435555112207" accel="1.0" decel="5.0" sigma="0.0" length="4.5" maxSpeed="4.032065431975613" /><vType id="vType_car_22.64135508823506" accel="1.0" decel="5.0" sigma="0.0" length="4.5" maxSpeed="6.289265302287516" /><vType id="vType_car_4.095768855541375" accel="1.0" decel="5.0" sigma="0.0" length="4.5" maxSpeed="1.1377135709837154" /><vType id="vType_car_12.285562336846422" accel="1.0" decel="5.0" sigma="0.0" length="4.5" maxSpeed="3.4126562046795614" /><vType id="vType_car_28.633549088720184" accel="1.0" decel="5.0" sigma="0.0" length="4.5" maxSpeed="7.953763635755607" /><vType id="vType_car_4.836260432625404" accel="1.0" decel="5.0" sigma="0.0" length="4.5" maxSpeed="1.343405675729279" /><vType id="vType_car_4.193303372474235" accel="1.0" decel="5.0" sigma="0.0" length="4.5" maxSpeed="1.164806492353954" /><vType id="vType_car_25.469344023283327" accel="1.0" decel="5.0" sigma="0.0" length="4.5" maxSpeed="7.074817784245369" /><vType id="vType_car_3.575583523249102" accel="1.0" decel="5.0" sigma="0.0" length="4.5" maxSpeed="0.9932176453469727" /><vType id="vType_car_17.70288374040618" accel="1.0" decel="5.0" sigma="0.0" length="4.5" maxSpeed="4.917467705668383" /><vType id="vType_car_23.693906538005393" accel="1.0" decel="5.0" sigma="0.0" length="4.5" maxSpeed="6.581640705001498" /><vType id="vType_car_22.5334638254853" accel="1.0" decel="5.0" sigma="0.0" length="4.5" maxSpeed="6.2592955070792495" /><vType id="vType_car_28.592914087124022" accel="1.0" decel="5.0" sigma="0.0" length="4.5" maxSpeed="7.942476135312228" /><vType id="vType_car_8.16222780182302" accel="1.0" decel="5.0" sigma="0.0" length="4.5" maxSpeed="2.2672855005063943" /><vType id="vType_truck_18.299241462613672" accel="1.0" decel="5.0" sigma="0.0" length="8" maxSpeed="5.083122628503798" /><vType id="vType_car_20.248947866084684" accel="1.0" decel="5.0" sigma="0.0" length="4.5" maxSpeed="5.624707740579079" /><vType id="vType_car_21.35115141058419" accel="1.0" decel="5.0" sigma="0.0" length="4.5" maxSpeed="5.930875391828942" /><vType id="vType_car_5.342511793199336" accel="1.0" decel="5.0" sigma="0.0" length="4.5" maxSpeed="1.484031053666482" /><vType id="vType_car_20.836804291855756" accel="1.0" decel="5.0" sigma="0.0" length="4.5" maxSpeed="5.788001192182154" /><vType id="vType_car_14.673778922196243" accel="1.0" decel="5.0" sigma="0.0" length="4.5" maxSpeed="4.076049700610067" /><vType id="vType_car_26.685040090522566" accel="1.0" decel="5.0" sigma="0.0" length="4.5" maxSpeed="7.412511136256268" /><vType id="vType_car_15.44607129741122" accel="1.0" decel="5.0" sigma="0.0" length="4.5" maxSpeed="4.290575360392006" /><vType id="vType_truck_18.927914821444425" accel="1.0" decel="5.0" sigma="0.0" length="8" maxSpeed="5.257754117067896" /><vType id="vType_car_3.576549877369318" accel="1.0" decel="5.0" sigma="0.0" length="4.5" maxSpeed="0.9934860770470327" /><vType id="vType_car_17.439371200230372" accel="1.0" decel="5.0" sigma="0.0" length="4.5" maxSpeed="4.84426977784177" /><vType id="vType_car_12.143912620740991" accel="1.0" decel="5.0" sigma="0.0" length="4.5" maxSpeed="3.373309061316942" /><vType id="vType_car_4.488815767472901" accel="1.0" decel="5.0" sigma="0.0" length="4.5" maxSpeed="1.2468932687424725" /><vType id="vType_car_19.840733098275148" accel="1.0" decel="5.0" sigma="0.0" length="4.5" maxSpeed="5.511314749520874" /><vType id="vType_car_15.606910327372717" accel="1.0" decel="5.0" sigma="0.0" length="4.5" maxSpeed="4.335252868714643" /><vType id="vType_car_3.126149111532176" accel="1.0" decel="5.0" sigma="0.0" length="4.5" maxSpeed="0.8683747532033821" /><vType id="vType_car_4.72215789692544" accel="1.0" decel="5.0" sigma="0.0" length="4.5" maxSpeed="1.3117105269237332" /><vType id="vType_car_6.069657392673917" accel="1.0" decel="5.0" sigma="0.0" length="4.5" maxSpeed="1.6860159424094212" /><vType id="vType_car_67.1698437849074" accel="1.0" decel="5.0" sigma="0.0" length="4.5" maxSpeed="18.658289940252054" /><vType id="vType_truck_5.444614783912804" accel="1.0" decel="5.0" sigma="0.0" length="8" maxSpeed="1.5123929955313342" /><vType id="vType_truck_23.295028413850517" accel="1.0" decel="5.0" sigma="0.0" length="8" maxSpeed="6.470841226069588" /><vType id="vType_car_1.0213852636312806" accel="1.0" decel="5.0" sigma="0.0" length="4.5" maxSpeed="0.2837181287864668" /><vType id="vType_car_37.981433469248074" accel="1.0" decel="5.0" sigma="0.0" length="4.5" maxSpeed="10.550398185902242" /><vType id="vType_car_3.5940868437710294" accel="1.0" decel="5.0" sigma="0.0" length="4.5" maxSpeed="0.9983574566030637" /><vType id="vType_car_27.084208881055858" accel="1.0" decel="5.0" sigma="0.0" length="4.5" maxSpeed="7.523391355848849" /><vType id="vType_car_20.88623592061941" accel="1.0" decel="5.0" sigma="0.0" length="4.5" maxSpeed="5.801732200172058" /><vType id="vType_car_2.8857631592322135" accel="1.0" decel="5.0" sigma="0.0" length="4.5" maxSpeed="0.8016008775645037" /><vType id="vType_car_4.320940089722828" accel="1.0" decel="5.0" sigma="0.0" length="4.5" maxSpeed="1.2002611360341187" /><vType id="vType_car_5.0344374241685275" accel="1.0" decel="5.0" sigma="0.0" length="4.5" maxSpeed="1.398454840046813" /><vType id="vType_car_19.492366221461428" accel="1.0" decel="5.0" sigma="0.0" length="4.5" maxSpeed="5.4145461726281745" /><vType id="vType_car_17.04815855500121" accel="1.0" decel="5.0" sigma="0.0" length="4.5" maxSpeed="4.735599598611446" /><vType id="vType_car_29.828229106382985" accel="1.0" decel="5.0" sigma="0.0" length="4.5" maxSpeed="8.285619196217496" /><vType id="vType_car_13.719036667906085" accel="1.0" decel="5.0" sigma="0.0" length="4.5" maxSpeed="3.8108435188628014" /><vType id="vType_car_3.777726317540352" accel="1.0" decel="5.0" sigma="0.0" length="4.5" maxSpeed="1.0493684215389867" /><vType id="vType_car_15.953932485002268" accel="1.0" decel="5.0" sigma="0.0" length="4.5" maxSpeed="4.43164791250063" /><vType id="vType_car_3.729667734953153" accel="1.0" decel="5.0" sigma="0.0" length="4.5" maxSpeed="1.0360188152647647" /><vType id="vType_car_9.112768409007083" accel="1.0" decel="5.0" sigma="0.0" length="4.5" maxSpeed="2.531324558057523" /><vType id="vType_car_16.457925758110857" accel="1.0" decel="5.0" sigma="0.0" length="4.5" maxSpeed="4.571646043919682" /><vType id="vType_car_6.833971108527984" accel="1.0" decel="5.0" sigma="0.0" length="4.5" maxSpeed="1.89832530792444" /><vType id="vType_car_3.0403469074870477" accel="1.0" decel="5.0" sigma="0.0" length="4.5" maxSpeed="0.844540807635291" /><vType id="vType_car_1.4587117537601977" accel="1.0" decel="5.0" sigma="0.0" length="4.5" maxSpeed="0.40519770937783267" /><vType id="vType_car_15.314771595578767" accel="1.0" decel="5.0" sigma="0.0" length="4.5" maxSpeed="4.254103220994102" /><vType id="vType_car_8.675436679697384" accel="1.0" decel="5.0" sigma="0.0" length="4.5" maxSpeed="2.409843522138162" /><vType id="vType_car_19.76359388846199" accel="1.0" decel="5.0" sigma="0.0" length="4.5" maxSpeed="5.489887191239442" /><vType id="vType_car_4.407347370463744" accel="1.0" decel="5.0" sigma="0.0" length="4.5" maxSpeed="1.224263158462151" /><vType id="vType_car_26.414823665752312" accel="1.0" decel="5.0" sigma="0.0" length="4.5" maxSpeed="7.337451018264531" /><vType id="vType_car_31.482080605619746" accel="1.0" decel="5.0" sigma="0.0" length="4.5" maxSpeed="8.745022390449929" /><vType id="vType_car_1.416647369077632" accel="1.0" decel="5.0" sigma="0.0" length="4.5" maxSpeed="0.39351315807712" /><vType id="vType_car_43.74064779754321" accel="1.0" decel="5.0" sigma="0.0" length="4.5" maxSpeed="12.150179943762003" /><vType id="vType_car_49.61853921756935" accel="1.0" decel="5.0" sigma="0.0" length="4.5" maxSpeed="13.78292756043593" /><vType id="vType_car_9.378980937684162" accel="1.0" decel="5.0" sigma="0.0" length="4.5" maxSpeed="2.605272482690045" /><vType id="vType_car_50.60072157721201" accel="1.0" decel="5.0" sigma="0.0" length="4.5" maxSpeed="14.055755993670003" /><vType id="vType_car_20.376962592125913" accel="1.0" decel="5.0" sigma="0.0" length="4.5" maxSpeed="5.660267386701642" /><vType id="vType_car_15.797852255108927" accel="1.0" decel="5.0" sigma="0.0" length="4.5" maxSpeed="4.388292293085813" /><vType id="vType_car_3.7777263175403517" accel="1.0" decel="5.0" sigma="0.0" length="4.5" maxSpeed="1.0493684215389865" /><vType id="vType_car_46.30920429527465" accel="1.0" decel="5.0" sigma="0.0" length="4.5" maxSpeed="12.863667859798513" /><vType id="vType_car_7.220742155441806" accel="1.0" decel="5.0" sigma="0.0" length="4.5" maxSpeed="2.005761709844946" /><vType id="vType_car_26.60524092322627" accel="1.0" decel="5.0" sigma="0.0" length="4.5" maxSpeed="7.390344700896185" /><vType id="vType_car_25.629508678438494" accel="1.0" decel="5.0" sigma="0.0" length="4.5" maxSpeed="7.119307966232915" /><vType id="vType_car_27.98682881978203" accel="1.0" decel="5.0" sigma="0.0" length="4.5" maxSpeed="7.774119116606119" /><vType id="vType_car_7.731655258446742" accel="1.0" decel="5.0" sigma="0.0" length="4.5" maxSpeed="2.147682016235206" /><vType id="vType_car_3.4312516185173845" accel="1.0" decel="5.0" sigma="0.0" length="4.5" maxSpeed="0.9531254495881624" /><vType id="vType_car_54.35297135202931" accel="1.0" decel="5.0" sigma="0.0" length="4.5" maxSpeed="15.098047597785918" /><vType id="vType_car_16.421353558506944" accel="1.0" decel="5.0" sigma="0.0" length="4.5" maxSpeed="4.561487099585262" /><vType id="vType_car_27.712606328379316" accel="1.0" decel="5.0" sigma="0.0" length="4.5" maxSpeed="7.6979462023275875" /><vType id="vType_car_28.222417766285684" accel="1.0" decel="5.0" sigma="0.0" length="4.5" maxSpeed="7.839560490634912" /><vType id="vType_car_54.16071726337062" accel="1.0" decel="5.0" sigma="0.0" length="4.5" maxSpeed="15.044643684269616" /><vType id="vType_car_10.18477600666002" accel="1.0" decel="5.0" sigma="0.0" length="4.5" maxSpeed="2.82910444629445" /><vType id="vType_car_4.176832699434437" accel="1.0" decel="5.0" sigma="0.0" length="4.5" maxSpeed="1.1602313053984545" /><vType id="vType_car_12.054494501790009" accel="1.0" decel="5.0" sigma="0.0" length="4.5" maxSpeed="3.348470694941669" /><vType id="vType_car_4.114602511916241" accel="1.0" decel="5.0" sigma="0.0" length="4.5" maxSpeed="1.1429451421989556" /><vType id="vType_car_3.4089028438934577" accel="1.0" decel="5.0" sigma="0.0" length="4.5" maxSpeed="0.9469174566370715" /><vType id="vType_car_24.456185322730285" accel="1.0" decel="5.0" sigma="0.0" length="4.5" maxSpeed="6.793384811869523" /><vType id="vType_car_15.068002943291281" accel="1.0" decel="5.0" sigma="0.0" length="4.5" maxSpeed="4.185556373136467" /><vType id="vType_car_25.79517290725698" accel="1.0" decel="5.0" sigma="0.0" length="4.5" maxSpeed="7.165325807571383" /><vType id="vType_car_20.376110721851767" accel="1.0" decel="5.0" sigma="0.0" length="4.5" maxSpeed="5.660030756069935" /><vType id="vType_car_19.196417935430176" accel="1.0" decel="5.0" sigma="0.0" length="4.5" maxSpeed="5.332338315397271" /><vType id="vType_car_3.3951024804372225" accel="1.0" decel="5.0" sigma="0.0" length="4.5" maxSpeed="0.943084022343673" /><vType id="vType_car_13.322995318431222" accel="1.0" decel="5.0" sigma="0.0" length="4.5" maxSpeed="3.7008320328975612" /><vType id="vType_car_25.849673253584132" accel="1.0" decel="5.0" sigma="0.0" length="4.5" maxSpeed="7.180464792662259" /><vType id="vType_car_18.292039920729547" accel="1.0" decel="5.0" sigma="0.0" length="4.5" maxSpeed="5.0811222002026515" /><vType id="vType_car_21.477750897766644" accel="1.0" decel="5.0" sigma="0.0" length="4.5" maxSpeed="5.96604191604629" /><vType id="vType_car_15.918340067214295" accel="1.0" decel="5.0" sigma="0.0" length="4.5" maxSpeed="4.421761129781749" /><vType id="vType_car_28.112180307839395" accel="1.0" decel="5.0" sigma="0.0" length="4.5" maxSpeed="7.808938974399831" /><vType id="vType_car_17.10850820598365" accel="1.0" decel="5.0" sigma="0.0" length="4.5" maxSpeed="4.752363390551014" /><vType id="vType_car_19.29672177231751" accel="1.0" decel="5.0" sigma="0.0" length="4.5" maxSpeed="5.36020049231042" /><vType id="vType_car_17.467375718585956" accel="1.0" decel="5.0" sigma="0.0" length="4.5" maxSpeed="4.852048810718321" /><vType id="vType_car_17.12521224421776" accel="1.0" decel="5.0" sigma="0.0" length="4.5" maxSpeed="4.7570034011716" /><vType id="vType_car_21.263650305231256" accel="1.0" decel="5.0" sigma="0.0" length="4.5" maxSpeed="5.906569529230905" /><vType id="vType_car_30.90310979250521" accel="1.0" decel="5.0" sigma="0.0" length="4.5" maxSpeed="8.58419716458478" /><vType id="vType_car_14.59042480291188" accel="1.0" decel="5.0" sigma="0.0" length="4.5" maxSpeed="4.052895778586633" /><vType id="vType_car_16.025168558858084" accel="1.0" decel="5.0" sigma="0.0" length="4.5" maxSpeed="4.451435710793912" /><vType id="vType_car_18.34780509956491" accel="1.0" decel="5.0" sigma="0.0" length="4.5" maxSpeed="5.0966125276569185" /><vType id="vType_car_15.922530325869179" accel="1.0" decel="5.0" sigma="0.0" length="4.5" maxSpeed="4.422925090519216" /><vType id="vType_car_16.16970279787948" accel="1.0" decel="5.0" sigma="0.0" length="4.5" maxSpeed="4.491584110522078" /><vType id="vType_car_27.134354142017294" accel="1.0" decel="5.0" sigma="0.0" length="4.5" maxSpeed="7.537320595004804" /><vType id="vType_car_7.6868476615837" accel="1.0" decel="5.0" sigma="0.0" length="4.5" maxSpeed="2.135235461551028" /><vType id="vType_car_20.77994032474344" accel="1.0" decel="5.0" sigma="0.0" length="4.5" maxSpeed="5.7722056457620665" /><vType id="vType_car_16.41311257950863" accel="1.0" decel="5.0" sigma="0.0" length="4.5" maxSpeed="4.559197938752398" /><vType id="vType_car_20.754986905508158" accel="1.0" decel="5.0" sigma="0.0" length="4.5" maxSpeed="5.765274140418932" /><vType id="vType_car_21.394078979393488" accel="1.0" decel="5.0" sigma="0.0" length="4.5" maxSpeed="5.9427997164981905" /><vType id="vType_car_16.84949308734069" accel="1.0" decel="5.0" sigma="0.0" length="4.5" maxSpeed="4.680414746483525" /><vType id="vType_car_3.0451007484055608" accel="1.0" decel="5.0" sigma="0.0" length="4.5" maxSpeed="0.8458613190015446" /><vType id="vType_car_21.061270401637557" accel="1.0" decel="5.0" sigma="0.0" length="4.5" maxSpeed="5.850352889343766" /><vType id="vType_car_15.876718327608142" accel="1.0" decel="5.0" sigma="0.0" length="4.5" maxSpeed="4.410199535446706" /><vType id="vType_car_16.608636955645157" accel="1.0" decel="5.0" sigma="0.0" length="4.5" maxSpeed="4.613510265456988" /><vType id="vType_car_28.139419466630464" accel="1.0" decel="5.0" sigma="0.0" length="4.5" maxSpeed="7.816505407397351" /><vType id="vType_car_21.219660750041818" accel="1.0" decel="5.0" sigma="0.0" length="4.5" maxSpeed="5.8943502083449495" /><vType id="vType_car_8.93145475993739" accel="1.0" decel="5.0" sigma="0.0" length="4.5" maxSpeed="2.4809596555381637" /><vType id="vType_car_18.65265214907141" accel="1.0" decel="5.0" sigma="0.0" length="4.5" maxSpeed="5.181292263630947" /><vType id="vType_car_16.419502256921703" accel="1.0" decel="5.0" sigma="0.0" length="4.5" maxSpeed="4.5609728491449175" /><vType id="vType_car_23.456391118127538" accel="1.0" decel="5.0" sigma="0.0" length="4.5" maxSpeed="6.515664199479872" /><vType id="vType_car_15.882217211416654" accel="1.0" decel="5.0" sigma="0.0" length="4.5" maxSpeed="4.4117270031712925" /><vType id="vType_car_3.960201094558474" accel="1.0" decel="5.0" sigma="0.0" length="4.5" maxSpeed="1.1000558595995762" /><vType id="vType_car_22.431063209399742" accel="1.0" decel="5.0" sigma="0.0" length="4.5" maxSpeed="6.230850891499928" /><vType id="vType_car_9.725910232022047" accel="1.0" decel="5.0" sigma="0.0" length="4.5" maxSpeed="2.701641731117235" /><vType id="vType_car_30.17583626928623" accel="1.0" decel="5.0" sigma="0.0" length="4.5" maxSpeed="8.382176741468397" /><vType id="vType_car_16.436240405685343" accel="1.0" decel="5.0" sigma="0.0" length="4.5" maxSpeed="4.565622334912595" /><vType id="vType_car_9.653053065738838" accel="1.0" decel="5.0" sigma="0.0" length="4.5" maxSpeed="2.6814036293718995" /><vType id="vType_car_29.68922676349931" accel="1.0" decel="5.0" sigma="0.0" length="4.5" maxSpeed="8.247007434305363" /><vType id="vType_car_12.315945695823256" accel="1.0" decel="5.0" sigma="0.0" length="4.5" maxSpeed="3.421096026617571" /><vType id="vType_car_22.71698186819481" accel="1.0" decel="5.0" sigma="0.0" length="4.5" maxSpeed="6.310272741165225" /><vType id="vType_car_33.97841535269017" accel="1.0" decel="5.0" sigma="0.0" length="4.5" maxSpeed="9.438448709080603" /><vType id="vType_car_5.290014421587904" accel="1.0" decel="5.0" sigma="0.0" length="4.5" maxSpeed="1.4694484504410845" /><vType id="vType_car_15.930759676441276" accel="1.0" decel="5.0" sigma="0.0" length="4.5" maxSpeed="4.425211021233688" /><vType id="vType_car_31.499925500590855" accel="1.0" decel="5.0" sigma="0.0" length="4.5" maxSpeed="8.749979305719682" /><vType id="vType_car_26.497211493554822" accel="1.0" decel="5.0" sigma="0.0" length="4.5" maxSpeed="7.36033652598745" /><vType id="vType_car_20.260231796573045" accel="1.0" decel="5.0" sigma="0.0" length="4.5" maxSpeed="5.627842165714735" /><vType id="vType_car_18.811050562835824" accel="1.0" decel="5.0" sigma="0.0" length="4.5" maxSpeed="5.225291823009951" /><vType id="vType_truck_8.692305881253588" accel="1.0" decel="5.0" sigma="0.0" length="8" maxSpeed="2.41452941145933" /><vType id="vType_car_24.126425594964132" accel="1.0" decel="5.0" sigma="0.0" length="4.5" maxSpeed="6.701784887490037" /><vType id="vType_car_26.35201706660149" accel="1.0" decel="5.0" sigma="0.0" length="4.5" maxSpeed="7.320004740722636" /><vType id="vType_car_29.88463854272695" accel="1.0" decel="5.0" sigma="0.0" length="4.5" maxSpeed="8.301288484090819" /><vType id="vType_car_14.038605069652217" accel="1.0" decel="5.0" sigma="0.0" length="4.5" maxSpeed="3.899612519347838" /><vType id="vType_car_20.67931515149258" accel="1.0" decel="5.0" sigma="0.0" length="4.5" maxSpeed="5.744254208747939" /><vType id="vType_car_32.44956021405462" accel="1.0" decel="5.0" sigma="0.0" length="4.5" maxSpeed="9.013766726126283" /><vType id="vType_car_8.770177449024008" accel="1.0" decel="5.0" sigma="0.0" length="4.5" maxSpeed="2.4361604025066685" /><vType id="vType_car_27.802248556650333" accel="1.0" decel="5.0" sigma="0.0" length="4.5" maxSpeed="7.722846821291759" /><vType id="vType_car_4.950365020092666" accel="1.0" decel="5.0" sigma="0.0" length="4.5" maxSpeed="1.3751013944701849" /><vType id="vType_car_19.090024886318822" accel="1.0" decel="5.0" sigma="0.0" length="4.5" maxSpeed="5.302784690644117" /><vType id="vType_car_21.1237659014899" accel="1.0" decel="5.0" sigma="0.0" length="4.5" maxSpeed="5.867712750413861" /><vType id="vType_truck_11.90105590215718" accel="1.0" decel="5.0" sigma="0.0" length="8" maxSpeed="3.3058488617103277" /><vType id="vType_car_6.01896378337911" accel="1.0" decel="5.0" sigma="0.0" length="4.5" maxSpeed="1.671934384271975" /><vType id="vType_car_26.832426424920538" accel="1.0" decel="5.0" sigma="0.0" length="4.5" maxSpeed="7.45345178470015" /><vType id="vType_tr