<?xml version='1.0' encoding='utf-8'?>
<routes><vType id="vType_car_50.44332912026705" accel="1.0" decel="5.0" sigma="0.0" length="4.5" maxSpeed="14.012035866740847" /><vType id="vType_car_3.027794477626939" accel="1.0" decel="5.0" sigma="0.0" length="4.5" maxSpeed="0.8410540215630385" /><vType id="vType_car_41.52162079052216" accel="1.0" decel="5.0" sigma="0.0" length="4.5" maxSpeed="11.533783552922822" /><vType id="vType_car_54.95387896174006" accel="1.0" decel="5.0" sigma="0.0" length="4.5" maxSpeed="15.264966378261127" /><vType id="vType_car_2.8413422545887563" accel="1.0" decel="5.0" sigma="0.0" length="4.5" maxSpeed="0.7892617373857657" /><vType id="vType_car_2.906716530427484" accel="1.0" decel="5.0" sigma="0.0" length="4.5" maxSpeed="0.8074212584520789" /><vType id="vType_car_7.8667768932621085" accel="1.0" decel="5.0" sigma="0.0" length="4.5" maxSpeed="2.185215803683919" /><vType id="vType_car_2.766589646096015" accel="1.0" decel="5.0" sigma="0.0" length="4.5" maxSpeed="0.7684971239155597" /><vType id="vType_car_2.87083976156553" accel="1.0" decel="5.0" sigma="0.0" length="4.5" maxSpeed="0.7974554893237583" /><vType id="vType_car_3.949999025464582" accel="1.0" decel="5.0" sigma="0.0" length="4.5" maxSpeed="1.0972219515179393" /><vType id="vType_car_9.494884703273284" accel="1.0" decel="5.0" sigma="0.0" length="4.5" maxSpeed="2.637467973131468" /><vType id="vType_car_2.792634167753604" accel="1.0" decel="5.0" sigma="0.0" length="4.5" maxSpeed="0.77573171326489" /><vType id="vType_car_5.514874396457801" accel="1.0" decel="5.0" sigma="0.0" length="4.5" maxSpeed="1.5319095545716113" /><vType id="vType_car_13.458518268286946" accel="1.0" decel="5.0" sigma="0.0" length="4.5" maxSpeed="3.7384772967463737" /><vType id="vType_car_3.053079384329504" accel="1.0" decel="5.0" sigma="0.0" length="4.5" maxSpeed="0.8480776067581955" /><vType id="vType_car_32.562920959458175" accel="1.0" decel="5.0" sigma="0.0" length="4.5" maxSpeed="9.045255822071715" /><vType id="vType_car_3.964762952230578" accel="1.0" decel="5.0" sigma="0.0" length="4.5" maxSpeed="1.1013230422862716" /><vType id="vType_car_41.01700352461605" accel="1.0" decel="5.0" sigma="0.0" length="4.5" maxSpeed="11.393612090171125" /><vType id="vType_car_3.2837386737074015" accel="1.0" decel="5.0" sigma="0.0" length="4.5" maxSpeed="0.9121496315853893" /><vType id="vType_car_39.14631904076582" accel="1.0" decel="5.0" sigma="0.0" length="4.5" maxSpeed="10.873977511323838" /><vType id="vType_car_40.7033360748915" accel="1.0" decel="5.0" sigma="0.0" length="4.5" maxSpeed="11.306482243025417" /><vType id="vType_car_8.830337298034504" accel="1.0" decel="5.0" sigma="0.0" length="4.5" maxSpeed="2.452871471676251" /><vType id="vType_car_36.175765145406075" accel="1.0" decel="5.0" sigma="0.0" length="4.5" maxSpeed="10.048823651501687" /><vType id="vType_car_47.58756771728298" accel="1.0" decel="5.0" sigma="0.0" length="4.5" maxSpeed="13.218768810356384" /><vType id="vType_truck_19.569881625475425" accel="1.0" decel="5.0" sigma="0.0" length="8" maxSpeed="5.436078229298729" /><vType id="vType_car_4.158179498785207" accel="1.0" decel="5.0" sigma="0.0" length="4.5" maxSpeed="1.1550498607736688" /><vType id="vType_car_2.766589646096017" accel="1.0" decel="5.0" sigma="0.0" length="4.5" maxSpeed="0.7684971239155602" /><vType id="vType_car_43.078168031904355" accel="1.0" decel="5.0" sigma="0.0" length="4.5" maxSpeed="11.966157786640098" /><vType id="vType_car_47.53639154804012" accel="1.0" decel="5.0" sigma="0.0" length="4.5" maxSpeed="13.204553207788923" /><vType id="vType_car_37.83004543789416" accel="1.0" decel="5.0" sigma="0.0" length="4.5" maxSpeed="10.508345954970599" /><vType id="vType_car_36.398721534669995" accel="1.0" decel="5.0" sigma="0.0" length="4.5" maxSpeed="10.110755981852776" /><vType id="vType_car_38.10409804849318" accel="1.0" decel="5.0" sigma="0.0" length="4.5" maxSpeed="10.584471680136994" /><vType id="vType_car_3.5630670883542024" accel="1.0" decel="5.0" sigma="0.0" length="4.5" maxSpeed="0.9897408578761673" /><vType id="vType_car_46.22511661622315" accel="1.0" decel="5.0" sigma="0.0" length="4.5" maxSpeed="12.840310171173096" /><vType id="vType_car_2.860442609921165" accel="1.0" decel="5.0" sigma="0.0" length="4.5" maxSpeed="0.7945673916447681" /><vType id="vType_car_45.941468865528655" accel="1.0" decel="5.0" sigma="0.0" length="4.5" maxSpeed="12.761519129313514" /><vType id="vType_car_9.227860572723971" accel="1.0" decel="5.0" sigma="0.0" length="4.5" maxSpeed="2.563294603534436" /><vType id="vType_car_11.695471875810293" accel="1.0" decel="5.0" sigma="0.0" length="4.5" maxSpeed="3.2487421877250813" /><vType id="vType_car_16.502789565677674" accel="1.0" decel="5.0" sigma="0.0" length="4.5" maxSpeed="4.584108212688243" /><vType id="vType_car_56.132832251486576" accel="1.0" decel="5.0" sigma="0.0" length="4.5" maxSpeed="15.592453403190715" /><vType id="vType_car_48.00469925249562" accel="1.0" decel="5.0" sigma="0.0" length="4.5" maxSpeed="13.334638681248784" /><vType id="vType_car_9.35950718036272" accel="1.0" decel="5.0" sigma="0.0" length="4.5" maxSpeed="2.599863105656311" /><vType id="vType_car_2.9826297149731453" accel="1.0" decel="5.0" sigma="0.0" length="4.5" maxSpeed="0.828508254159207" /><vType id="vType_car_3.3645498973097383" accel="1.0" decel="5.0" sigma="0.0" length="4.5" maxSpeed="0.9345971936971496" /><vType id="vType_car_6.186282514517781" accel="1.0" decel="5.0" sigma="0.0" length="4.5" maxSpeed="1.7184118095882723" /><vType id="vType_car_42.01469386904999" accel="1.0" decel="5.0" sigma="0.0" length="4.5" maxSpeed="11.670748296958331" /><vType id="vType_car_6.816808595141266" accel="1.0" decel="5.0" sigma="0.0" length="4.5" maxSpeed="1.893557943094796" /><vType id="vType_car_3.418681079267678" accel="1.0" decel="5.0" sigma="0.0" length="4.5" maxSpeed="0.9496336331299106" /><vType id="vType_car_2.7604179740516313" accel="1.0" decel="5.0" sigma="0.0" length="4.5" maxSpeed="0.7667827705698975" /><vType id="vType_car_37.05085624591724" accel="1.0" decel="5.0" sigma="0.0" length="4.5" maxSpeed="10.291904512754789" /><vType id="vType_car_8.967568192229061" accel="1.0" decel="5.0" sigma="0.0" length="4.5" maxSpeed="2.4909911645080727" /><vType id="vType_car_5.3912694413684035" accel="1.0" decel="5.0" sigma="0.0" length="4.5" maxSpeed="1.4975748448245565" /><vType id="vType_car_13.659873347408421" accel="1.0" decel="5.0" sigma="0.0" length="4.5" maxSpeed="3.7944092631690056" /><vType id="vType_car_7.760491857889279" accel="1.0" decel="5.0" sigma="0.0" length="4.5" maxSpeed="2.1556921827470217" /><vType id="vType_car_15.4624892619001" accel="1.0" decel="5.0" sigma="0.0" length="4.5" maxSpeed="4.2951359060833605" /><vType id="vType_car_4.352033005071162" accel="1.0" decel="5.0" sigma="0.0" length="4.5" maxSpeed="1.2088980569642116" /><vType id="vType_car_14.787660348667798" accel="1.0" decel="5.0" sigma="0.0" length="4.5" maxSpeed="4.107683430185499" /><vType id="vType_car_4.149884469144025" accel="1.0" decel="5.0" sigma="0.0" length="4.5" maxSpeed="1.1527456858733403" /><vType id="vType_car_6.370835236631489" accel="1.0" decel="5.0" sigma="0.0" length="4.5" maxSpeed="1.769676454619858" /><vType id="vType_car_6.5773184751780756" accel="1.0" decel="5.0" sigma="0.0" length="4.5" maxSpeed="1.8270329097716875" /><vType id="vType_car_10.006102920127184" accel="1.0" decel="5.0" sigma="0.0" length="4.5" maxSpeed="2.779473033368662" /><route id="route_north_to_east" edges="north_to_center center_to_east" /><route id="route_north_to_south" edges="north_to_center center_to_south" /><route id="route_north_to_west" edges="north_to_center center_to_west" /><route id="route_east_to_west" edges="east_to_center center_to_west" /><route id="route_east_to_south" edges="east_to_center center_to_south" /><route id="route_east_to_north" edges="east_to_center center_to_north" /><route id="route_south_to_west" edges="south_to_center center_to_west" /><route id="route_south_to_north" edges="south_to_center center_to_north" /><route id="route_south_to_east" edges="south_to_center center_to_east" /><route id="route_west_to_south" edges="west_to_center center_to_south" /><route id="route_west_to_north" edges="west_to_center center_to_north" /><route id="route_west_to_east" edges="west_to_center center_to_east" /><vehicle id="veh3" type="vType_car_41.52162079052216" route="route_west_to_south" depart="0.05" /><vehicle id="veh7" type="vType_car_7.8667768932621085" route="route_east_to_south" depart="0.05" /><vehicle id="veh14" type="vType_car_13.458518268286946" route="route_east_to_north" depart="0.05" /><vehicle id="veh19" type="vType_car_32.562920959458175" route="route_east_to_west" depart="1.14" /><vehicle id="veh23" type="vType_car_41.01700352461605" route="route_east_to_west" depart="2.78" /><vehicle id="veh27" type="vType_car_39.14631904076582" route="route_east_to_west" depart="3.96" /><vehicle id="veh28" type="vType_car_40.7033360748915" route="route_west_to_east" depart="5.51" /><vehicle id="veh29" type="vType_car_8.830337298034504" route="route_south_to_east" depart="5.92" /><vehicle id="veh30" type="vType_car_36.175765145406075" route="route_east_to_west" depart="6.24" /><vehicle id="veh34" type="vType_car_47.58756771728298" route="route_east_to_west" depart="7.06" /><vehicle id="veh35" type="vType_truck_19.569881625475425" route="route_west_to_east" depart="7.74" /><vehicle id="veh38" type="vType_car_43.078168031904355" route="route_east_to_west" depart="9.52" /><vehicle id="veh39" type="vType_car_47.53639154804012" route="route_west_to_east" depart="11.11" /><vehicle id="veh40" type="vType_car_37.83004543789416" route="route_east_to_west" depart="11.39" /><vehicle id="veh41" type="vType_car_36.398721534669995" route="route_west_to_east" depart="12.84" /><vehicle id="veh42" type="vType_car_38.10409804849318" route="route_east_to_west" depart="13.44" /><vehicle id="veh45" type="vType_car_46.22511661622315" route="route_west_to_east" depart="16.35" /><vehicle id="veh49" type="vType_car_45.941468865528655" route="route_east_to_west" depart="17.99" /><vehicle id="veh54" type="vType_car_56.132832251486576" route="route_west_to_east" depart="25.82" /><vehicle id="veh57" type="vType_car_48.00469925249562" route="route_west_to_east" depart="27.51" /><vehicle id="veh62" type="vType_car_42.01469386904999" route="route_west_to_east" depart="31.20" /><vehicle id="veh70" type="vType_car_37.05085624591724" route="route_east_to_west" depart="33.84" /><vehicle id="veh74" type="vType_car_13.659873347408421" route="route_east_to_south" depart="39.67" /><vehicle id="veh77" type="vType_car_7.760491857889279" route="route_south_to_east" depart="40.40" /><vehicle id="veh79" type="vType_car_15.4624892619001" route="route_east_to_south" depart="43.77" /><vehicle id="veh82" type="vType_car_14.787660348667798" route="route_east_to_south" depart="48.41" /></routes>