<?xml version='1.0' encoding='utf-8'?>
<routes><vType id="vType_car_15.219030978970439" accel="1.0" decel="5.0" sigma="0.0" length="4.5" maxSpeed="4.227508605269566" /><vType id="vType_car_15.265405079301166" accel="1.0" decel="5.0" sigma="0.0" length="4.5" maxSpeed="4.240390299805879" /><vType id="vType_car_34.691276367698805" accel="1.0" decel="5.0" sigma="0.0" length="4.5" maxSpeed="9.636465657694112" /><vType id="vType_car_34.091116842542235" accel="1.0" decel="5.0" sigma="0.0" length="4.5" maxSpeed="9.469754678483953" /><vType id="vType_car_24.92982727241088" accel="1.0" decel="5.0" sigma="0.0" length="4.5" maxSpeed="6.924952020114133" /><vType id="vType_car_38.61088881297669" accel="1.0" decel="5.0" sigma="0.0" length="4.5" maxSpeed="10.725246892493525" /><vType id="vType_car_4.555875537280998" accel="1.0" decel="5.0" sigma="0.0" length="4.5" maxSpeed="1.265520982578055" /><vType id="vType_car_4.552148265542218" accel="1.0" decel="5.0" sigma="0.0" length="4.5" maxSpeed="1.2644856293172828" /><vType id="vType_car_21.546355220615244" accel="1.0" decel="5.0" sigma="0.0" length="4.5" maxSpeed="5.985098672393123" /><vType id="vType_car_4.167960639460897" accel="1.0" decel="5.0" sigma="0.0" length="4.5" maxSpeed="1.1577668442946936" /><vType id="vType_car_3.1521952597025926" accel="1.0" decel="5.0" sigma="0.0" length="4.5" maxSpeed="0.8756097943618313" /><vType id="vType_car_4.333072199127203" accel="1.0" decel="5.0" sigma="0.0" length="4.5" maxSpeed="1.2036311664242232" /><vType id="vType_car_5.2133841587534" accel="1.0" decel="5.0" sigma="0.0" length="4.5" maxSpeed="1.448162266320389" /><vType id="vType_car_29.729531345856508" accel="1.0" decel="5.0" sigma="0.0" length="4.5" maxSpeed="8.258203151626807" /><vType id="vType_car_23.590230836841293" accel="1.0" decel="5.0" sigma="0.0" length="4.5" maxSpeed="6.552841899122582" /><vType id="vType_car_14.196771148828068" accel="1.0" decel="5.0" sigma="0.0" length="4.5" maxSpeed="3.94354754134113" /><vType id="vType_car_33.09126651823343" accel="1.0" decel="5.0" sigma="0.0" length="4.5" maxSpeed="9.192018477287064" /><vType id="vType_car_3.9242299549114215" accel="1.0" decel="5.0" sigma="0.0" length="4.5" maxSpeed="1.0900638763642838" /><vType id="vType_car_25.83277316840865" accel="1.0" decel="5.0" sigma="0.0" length="4.5" maxSpeed="7.175770324557958" /><vType id="vType_car_26.944858403956527" accel="1.0" decel="5.0" sigma="0.0" length="4.5" maxSpeed="7.484682889987924" /><vType id="vType_car_27.288277298276345" accel="1.0" decel="5.0" sigma="0.0" length="4.5" maxSpeed="7.580077027298985" /><vType id="vType_car_8.397576269938343" accel="1.0" decel="5.0" sigma="0.0" length="4.5" maxSpeed="2.332660074982873" /><vType id="vType_car_0.26711942148722523" accel="1.0" decel="5.0" sigma="0.0" length="4.5" maxSpeed="0.074199839302007" /><vType id="vType_car_29.344956213803478" accel="1.0" decel="5.0" sigma="0.0" length="4.5" maxSpeed="8.15137672605652" /><vType id="vType_car_31.783236488862183" accel="1.0" decel="5.0" sigma="0.0" length="4.5" maxSpeed="8.828676802461718" /><vType id="vType_car_3.77763908640489" accel="1.0" decel="5.0" sigma="0.0" length="4.5" maxSpeed="1.049344190668025" /><vType id="vType_car_3.9732327543223414" accel="1.0" decel="5.0" sigma="0.0" length="4.5" maxSpeed="1.1036757650895392" /><vType id="vType_truck_44.00978951816549" accel="1.0" decel="5.0" sigma="0.0" length="8" maxSpeed="12.224941532823747" /><vType id="vType_car_8.552091239535248" accel="1.0" decel="5.0" sigma="0.0" length="4.5" maxSpeed="2.375580899870902" /><vType id="vType_car_18.425738967997347" accel="1.0" decel="5.0" sigma="0.0" length="4.5" maxSpeed="5.118260824443707" /><vType id="vType_car_25.962816650380553" accel="1.0" decel="5.0" sigma="0.0" length="4.5" maxSpeed="7.211893513994598" /><vType id="vType_car_4.415108011940363" accel="1.0" decel="5.0" sigma="0.0" length="4.5" maxSpeed="1.2264188922056565" /><vType id="vType_car_9.618157673677246" accel="1.0" decel="5.0" sigma="0.0" length="4.5" maxSpeed="2.671710464910346" /><vType id="vType_car_19.862044845046885" accel="1.0" decel="5.0" sigma="0.0" length="4.5" maxSpeed="5.5172346791796905" /><vType id="vType_car_9.397157594535713" accel="1.0" decel="5.0" sigma="0.0" length="4.5" maxSpeed="2.610321554037698" /><vType id="vType_car_4.1475972650466195" accel="1.0" decel="5.0" sigma="0.0" length="4.5" maxSpeed="1.1521103514018387" /><vType id="vType_car_10.719073448328801" accel="1.0" decel="5.0" sigma="0.0" length="4.5" maxSpeed="2.977520402313556" /><vType id="vType_car_30.270272947701105" accel="1.0" decel="5.0" sigma="0.0" length="4.5" maxSpeed="8.408409152139196" /><vType id="vType_car_2.9447017671601374" accel="1.0" decel="5.0" sigma="0.0" length="4.5" maxSpeed="0.8179727131000382" /><vType id="vType_car_3.1480325720040754" accel="1.0" decel="5.0" sigma="0.0" length="4.5" maxSpeed="0.8744534922233542" /><vType id="vType_car_10.045506066203092" accel="1.0" decel="5.0" sigma="0.0" length="4.5" maxSpeed="2.790418351723081" /><vType id="vType_car_10.95102939085486" accel="1.0" decel="5.0" sigma="0.0" length="4.5" maxSpeed="3.0419526085707944" /><vType id="vType_car_5.300264094494346" accel="1.0" decel="5.0" sigma="0.0" length="4.5" maxSpeed="1.472295581803985" /><vType id="vType_car_7.851075570899627" accel="1.0" decel="5.0" sigma="0.0" length="4.5" maxSpeed="2.1808543252498964" /><vType id="vType_car_11.657030946011341" accel="1.0" decel="5.0" sigma="0.0" length="4.5" maxSpeed="3.2380641516698168" /><vType id="vType_car_5.151559553724153" accel="1.0" decel="5.0" sigma="0.0" length="4.5" maxSpeed="1.430988764923376" /><vType id="vType_car_7.01059394468999" accel="1.0" decel="5.0" sigma="0.0" length="4.5" maxSpeed="1.9473872068583307" /><route id="route_north_to_east" edges="north_to_center center_to_east" /><route id="route_north_to_south" edges="north_to_center center_to_south" /><route id="route_north_to_west" edges="north_to_center center_to_west" /><route id="route_east_to_west" edges="east_to_center center_to_west" /><route id="route_east_to_south" edges="east_to_center center_to_south" /><route id="route_east_to_north" edges="east_to_center center_to_north" /><route id="route_south_to_west" edges="south_to_center center_to_west" /><route id="route_south_to_north" edges="south_to_center center_to_north" /><route id="route_south_to_east" edges="south_to_center center_to_east" /><route id="route_west_to_south" edges="west_to_center center_to_south" /><route id="route_west_to_north" edges="west_to_center center_to_north" /><route id="route_west_to_east" edges="west_to_center center_to_east" /><vehicle id="veh416" type="vType_car_15.219030978970439" route="route_west_to_north" depart="0.03" /><vehicle id="veh419" type="vType_car_15.265405079301166" route="route_west_to_north" depart="0.03" /><vehicle id="veh480" type="vType_car_38.61088881297669" route="route_south_to_west" depart="2.07" /><vehicle id="veh484" type="vType_car_21.546355220615244" route="route_north_to_east" depart="7.64" /><vehicle id="veh490" type="vType_car_29.729531345856508" route="route_west_to_south" depart="14.94" /><vehicle id="veh491" type="vType_car_23.590230836841293" route="route_west_to_north" depart="15.08" /><vehicle id="veh494" type="vType_car_33.09126651823343" route="route_west_to_south" depart="17.34" /><vehicle id="veh497" type="vType_car_25.83277316840865" route="route_west_to_north" depart="18.34" /><vehicle id="veh500" type="vType_car_26.944858403956527" route="route_west_to_north" depart="22.65" /><vehicle id="veh501" type="vType_car_27.288277298276345" route="route_east_to_west" depart="23.45" /><vehicle id="veh502" type="vType_car_8.397576269938343" route="route_east_to_north" depart="24.98" /><vehicle id="veh506" type="vType_car_29.344956213803478" route="route_east_to_west" depart="28.05" /><vehicle id="veh507" type="vType_car_31.783236488862183" route="route_east_to_west" depart="30.35" /><vehicle id="veh511" type="vType_truck_44.00978951816549" route="route_east_to_west" depart="41.86" /><vehicle id="veh512" type="vType_car_8.552091239535248" route="route_east_to_north" depart="43.86" /><vehicle id="veh514" type="vType_car_18.425738967997347" route="route_north_to_east" depart="44.73" /><vehicle id="veh515" type="vType_car_25.962816650380553" route="route_north_to_south" depart="44.86" /><vehicle id="veh517" type="vType_car_9.618157673677246" route="route_east_to_north" depart="47.10" /><vehicle id="veh518" type="vType_car_19.862044845046885" route="route_north_to_west" depart="48.16" /><vehicle id="veh521" type="vType_car_10.719073448328801" route="route_east_to_north" depart="52.43" /><vehicle id="veh522" type="vType_car_30.270272947701105" route="route_north_to_south" depart="53.17" /></routes>