<?xml version='1.0' encoding='utf-8'?>
<routes><vType id="vType_car_4.204222166062563" accel="1.0" decel="5.0" sigma="0.0" length="4.5" maxSpeed="1.1678394905729343" /><vType id="vType_car_4.015440901283187" accel="1.0" decel="5.0" sigma="0.0" length="4.5" maxSpeed="1.1154002503564406" /><vType id="vType_car_6.484964457158802" accel="1.0" decel="5.0" sigma="0.0" length="4.5" maxSpeed="1.801379015877445" /><vType id="vType_car_5.072621359341893" accel="1.0" decel="5.0" sigma="0.0" length="4.5" maxSpeed="1.4090614887060813" /><vType id="vType_car_109.86172511770744" accel="1.0" decel="5.0" sigma="0.0" length="4.5" maxSpeed="30.517145866029843" /><vType id="vType_car_14.570861804490264" accel="1.0" decel="5.0" sigma="0.0" length="4.5" maxSpeed="4.047461612358407" /><vType id="vType_car_23.76375615224234" accel="1.0" decel="5.0" sigma="0.0" length="4.5" maxSpeed="6.601043375622872" /><vType id="vType_car_36.58880385470374" accel="1.0" decel="5.0" sigma="0.0" length="4.5" maxSpeed="10.163556626306594" /><vType id="vType_car_37.90582221429931" accel="1.0" decel="5.0" sigma="0.0" length="4.5" maxSpeed="10.529395059527587" /><vType id="vType_car_33.55427177678543" accel="1.0" decel="5.0" sigma="0.0" length="4.5" maxSpeed="9.320631049107062" /><vType id="vType_car_5.954532253929496" accel="1.0" decel="5.0" sigma="0.0" length="4.5" maxSpeed="1.6540367372026377" /><vType id="vType_car_27.506670588911764" accel="1.0" decel="5.0" sigma="0.0" length="4.5" maxSpeed="7.640741830253267" /><vType id="vType_car_21.931957879742107" accel="1.0" decel="5.0" sigma="0.0" length="4.5" maxSpeed="6.092210522150586" /><vType id="vType_car_6.917696959179991" accel="1.0" decel="5.0" sigma="0.0" length="4.5" maxSpeed="1.9215824886611086" /><vType id="vType_car_7.371731687822052" accel="1.0" decel="5.0" sigma="0.0" length="4.5" maxSpeed="2.0477032466172367" /><vType id="vType_car_19.004444164346886" accel="1.0" decel="5.0" sigma="0.0" length="4.5" maxSpeed="5.279012267874135" /><vType id="vType_car_36.30961805837512" accel="1.0" decel="5.0" sigma="0.0" length="4.5" maxSpeed="10.086005016215312" /><vType id="vType_car_20.909642258462938" accel="1.0" decel="5.0" sigma="0.0" length="4.5" maxSpeed="5.8082339606841495" /><vType id="vType_car_14.382652934012762" accel="1.0" decel="5.0" sigma="0.0" length="4.5" maxSpeed="3.9951813705591004" /><vType id="vType_car_7.234727220882888" accel="1.0" decel="5.0" sigma="0.0" length="4.5" maxSpeed="2.009646450245247" /><vType id="vType_car_21.48871999434876" accel="1.0" decel="5.0" sigma="0.0" length="4.5" maxSpeed="5.9690888873191" /><vType id="vType_car_4.127873831151616" accel="1.0" decel="5.0" sigma="0.0" length="4.5" maxSpeed="1.1466316197643378" /><vType id="vType_car_25.602590063831073" accel="1.0" decel="5.0" sigma="0.0" length="4.5" maxSpeed="7.111830573286409" /><vType id="vType_car_11.122079784764678" accel="1.0" decel="5.0" sigma="0.0" length="4.5" maxSpeed="3.089466606879077" /><vType id="vType_car_32.38723937225048" accel="1.0" decel="5.0" sigma="0.0" length="4.5" maxSpeed="8.996455381180688" /><vType id="vType_car_8.230417223866764" accel="1.0" decel="5.0" sigma="0.0" length="4.5" maxSpeed="2.2862270066296566" /><vType id="vType_car_21.810435613822868" accel="1.0" decel="5.0" sigma="0.0" length="4.5" maxSpeed="6.058454337173019" /><vType id="vType_car_19.456743366946412" accel="1.0" decel="5.0" sigma="0.0" length="4.5" maxSpeed="5.404650935262892" /><vType id="vType_car_16.4007554253614" accel="1.0" decel="5.0" sigma="0.0" length="4.5" maxSpeed="4.555765395933722" /><vType id="vType_car_21.976694293489654" accel="1.0" decel="5.0" sigma="0.0" length="4.5" maxSpeed="6.1046373037471255" /><vType id="vType_car_19.005276238932996" accel="1.0" decel="5.0" sigma="0.0" length="4.5" maxSpeed="5.27924339970361" /><vType id="vType_car_15.313988640304792" accel="1.0" decel="5.0" sigma="0.0" length="4.5" maxSpeed="4.253885733417998" /><vType id="vType_car_3.579811343920605" accel="1.0" decel="5.0" sigma="0.0" length="4.5" maxSpeed="0.9943920399779459" /><vType id="vType_car_3.777726317540352" accel="1.0" decel="5.0" sigma="0.0" length="4.5" maxSpeed="1.0493684215389867" /><vType id="vType_car_23.875528556162468" accel="1.0" decel="5.0" sigma="0.0" length="4.5" maxSpeed="6.632091265600685" /><vType id="vType_car_17.567007238912723" accel="1.0" decel="5.0" sigma="0.0" length="4.5" maxSpeed="4.879724233031312" /><vType id="vType_car_3.599520126672622" accel="1.0" decel="5.0" sigma="0.0" length="4.5" maxSpeed="0.999866701853506" /><vType id="vType_car_17.72227587681036" accel="1.0" decel="5.0" sigma="0.0" length="4.5" maxSpeed="4.9228544102251" /><vType id="vType_car_16.99077275653668" accel="1.0" decel="5.0" sigma="0.0" length="4.5" maxSpeed="4.719659099037966" /><vType id="vType_car_24.892375570357167" accel="1.0" decel="5.0" sigma="0.0" length="4.5" maxSpeed="6.914548769543657" /><vType id="vType_car_15.286202757069374" accel="1.0" decel="5.0" sigma="0.0" length="4.5" maxSpeed="4.24616743251927" /><vType id="vType_car_24.688498218931272" accel="1.0" decel="5.0" sigma="0.0" length="4.5" maxSpeed="6.857916171925353" /><vType id="vType_car_3.1572424825617422" accel="1.0" decel="5.0" sigma="0.0" length="4.5" maxSpeed="0.877011800711595" /><vType id="vType_car_13.9820286414841" accel="1.0" decel="5.0" sigma="0.0" length="4.5" maxSpeed="3.883896844856694" /><vType id="vType_car_28.30388950526864" accel="1.0" decel="5.0" sigma="0.0" length="4.5" maxSpeed="7.862191529241288" /><vType id="vType_car_17.778955143280005" accel="1.0" decel="5.0" sigma="0.0" length="4.5" maxSpeed="4.938598650911112" /><vType id="vType_car_20.599935029245476" accel="1.0" decel="5.0" sigma="0.0" length="4.5" maxSpeed="5.72220417479041" /><vType id="vType_car_18.060633212711334" accel="1.0" decel="5.0" sigma="0.0" length="4.5" maxSpeed="5.016842559086482" /><vType id="vType_car_26.9563268698933" accel="1.0" decel="5.0" sigma="0.0" length="4.5" maxSpeed="7.487868574970361" /><vType id="vType_car_16.380066447231254" accel="1.0" decel="5.0" sigma="0.0" length="4.5" maxSpeed="4.550018457564237" /><vType id="vType_car_30.9857152178667" accel="1.0" decel="5.0" sigma="0.0" length="4.5" maxSpeed="8.607143116074084" /><vType id="vType_car_13.820856415947674" accel="1.0" decel="5.0" sigma="0.0" length="4.5" maxSpeed="3.839126782207687" /><vType id="vType_car_21.834570976884557" accel="1.0" decel="5.0" sigma="0.0" length="4.5" maxSpeed="6.065158604690154" /><vType id="vType_car_22.848382100564347" accel="1.0" decel="5.0" sigma="0.0" length="4.5" maxSpeed="6.346772805712319" /><vType id="vType_car_37.91808554346658" accel="1.0" decel="5.0" sigma="0.0" length="4.5" maxSpeed="10.532801539851828" /><vType id="vType_car_18.92605826432893" accel="1.0" decel="5.0" sigma="0.0" length="4.5" maxSpeed="5.257238406758036" /><vType id="vType_car_26.486854344465947" accel="1.0" decel="5.0" sigma="0.0" length="4.5" maxSpeed="7.35745954012943" /><vType id="vType_car_16.842015537099567" accel="1.0" decel="5.0" sigma="0.0" length="4.5" maxSpeed="4.678337649194324" /><vType id="vType_car_20.171544210707612" accel="1.0" decel="5.0" sigma="0.0" length="4.5" maxSpeed="5.603206725196559" /><vType id="vType_car_18.511070891191153" accel="1.0" decel="5.0" sigma="0.0" length="4.5" maxSpeed="5.141964136441987" /><vType id="vType_car_25.472350296957277" accel="1.0" decel="5.0" sigma="0.0" length="4.5" maxSpeed="7.07565286026591" /><vType id="vType_car_17.547922936478273" accel="1.0" decel="5.0" sigma="0.0" length="4.5" maxSpeed="4.874423037910631" /><vType id="vType_car_29.969800267191875" accel="1.0" decel="5.0" sigma="0.0" length="4.5" maxSpeed="8.32494451866441" /><vType id="vType_car_20.262108797578232" accel="1.0" decel="5.0" sigma="0.0" length="4.5" maxSpeed="5.628363554882842" /><vType id="vType_car_0.8717829963554659" accel="1.0" decel="5.0" sigma="0.0" length="4.5" maxSpeed="0.24216194343207384" /><vType id="vType_car_21.380194658179597" accel="1.0" decel="5.0" sigma="0.0" length="4.5" maxSpeed="5.938942960605444" /><vType id="vType_car_11.29790382843559" accel="1.0" decel="5.0" sigma="0.0" length="4.5" maxSpeed="3.138306619009886" /><vType id="vType_car_4.707833904930913" accel="1.0" decel="5.0" sigma="0.0" length="4.5" maxSpeed="1.307731640258587" /><vType id="vType_car_3.0972713896055826" accel="1.0" decel="5.0" sigma="0.0" length="4.5" maxSpeed="0.8603531637793285" /><vType id="vType_car_4.79238985503386" accel="1.0" decel="5.0" sigma="0.0" length="4.5" maxSpeed="1.331219404176072" /><vType id="vType_car_4.168922686455098" accel="1.0" decel="5.0" sigma="0.0" length="4.5" maxSpeed="1.1580340795708606" /><vType id="vType_car_4.533271581048423" accel="1.0" decel="5.0" sigma="0.0" length="4.5" maxSpeed="1.259242105846784" /><route id="route_north_to_east" edges="north_to_center center_to_east" /><route id="route_north_to_south" edges="north_to_center center_to_south" /><route id="route_north_to_west" edges="north_to_center center_to_west" /><route id="route_east_to_west" edges="east_to_center center_to_west" /><route id="route_east_to_south" edges="east_to_center center_to_south" /><route id="route_east_to_north" edges="east_to_center center_to_north" /><route id="route_south_to_west" edges="south_to_center center_to_west" /><route id="route_south_to_north" edges="south_to_center center_to_north" /><route id="route_south_to_east" edges="south_to_center center_to_east" /><route id="route_west_to_south" edges="west_to_center center_to_south" /><route id="route_west_to_north" edges="west_to_center center_to_north" /><route id="route_west_to_east" edges="west_to_center center_to_east" /><vehicle id="veh273" type="vType_car_23.76375615224234" route="route_north_to_east" depart="0.03" /><vehicle id="veh274" type="vType_car_36.58880385470374" route="route_north_to_west" depart="0.03" /><vehicle id="veh275" type="vType_car_37.90582221429931" route="route_north_to_south" depart="0.03" /><vehicle id="veh276" type="vType_car_27.506670588911764" route="route_north_to_west" depart="0.73" /><vehicle id="veh277" type="vType_car_21.931957879742107" route="route_north_to_west" depart="2.20" /><vehicle id="veh280" type="vType_car_19.004444164346886" route="route_south_to_north" depart="4.97" /><vehicle id="veh281" type="vType_car_36.30961805837512" route="route_north_to_south" depart="5.04" /><vehicle id="veh283" type="vType_car_20.909642258462938" route="route_north_to_west" depart="5.90" /><vehicle id="veh284" type="vType_car_14.382652934012762" route="route_south_to_north" depart="6.70" /><vehicle id="veh285" type="vType_car_7.234727220882888" route="route_east_to_north" depart="6.90" /><vehicle id="veh287" type="vType_car_21.48871999434876" route="route_north_to_west" depart="8.57" /><vehicle id="veh291" type="vType_car_25.602590063831073" route="route_south_to_north" depart="8.94" /><vehicle id="veh292" type="vType_car_11.122079784764678" route="route_north_to_east" depart="11.27" /><vehicle id="veh293" type="vType_car_32.38723937225048" route="route_south_to_north" depart="11.41" /><vehicle id="veh295" type="vType_car_8.230417223866764" route="route_east_to_north" depart="14.78" /><vehicle id="veh296" type="vType_car_21.810435613822868" route="route_south_to_east" depart="16.08" /><vehicle id="veh297" type="vType_car_19.456743366946412" route="route_north_to_west" depart="16.38" /><vehicle id="veh299" type="vType_car_16.4007554253614" route="route_north_to_east" depart="18.68" /><vehicle id="veh300" type="vType_car_21.976694293489654" route="route_north_to_west" depart="18.98" /><vehicle id="veh301" type="vType_car_19.005276238932996" route="route_north_to_west" depart="19.24" /><vehicle id="veh306" type="vType_car_15.313988640304792" route="route_north_to_east" depart="20.88" /><vehicle id="veh310" type="vType_car_23.875528556162468" route="route_north_to_west" depart="22.31" /><vehicle id="veh311" type="vType_car_17.567007238912723" route="route_north_to_east" depart="23.55" /><vehicle id="veh313" type="vType_car_17.72227587681036" route="route_north_to_west" depart="24.55" /><vehicle id="veh314" type="vType_car_16.99077275653668" route="route_north_to_east" depart="24.95" /><vehicle id="veh316" type="vType_car_24.892375570357167" route="route_north_to_south" depart="26.32" /><vehicle id="veh319" type="vType_car_15.286202757069374" route="route_north_to_east" depart="27.98" /><vehicle id="veh320" type="vType_car_24.688498218931272" route="route_north_to_west" depart="29.05" /><vehicle id="veh322" type="vType_car_13.9820286414841" route="route_north_to_east" depart="30.38" /><vehicle id="veh323" type="vType_car_28.30388950526864" route="route_north_to_south" depart="31.12" /><vehicle id="veh324" type="vType_car_17.778955143280005" route="route_north_to_east" depart="31.82" /><vehicle id="veh326" type="vType_car_20.599935029245476" route="route_north_to_west" depart="32.62" /><vehicle id="veh327" type="vType_car_18.060633212711334" route="route_north_to_east" depart="34.29" /><vehicle id="veh328" type="vType_car_26.9563268698933" route="route_north_to_south" depart="35.09" /><vehicle id="veh330" type="vType_car_16.380066447231254" route="route_north_to_east" depart="36.36" /><vehicle id="veh332" type="vType_car_30.9857152178667" route="route_north_to_south" depart="37.52" /><vehicle id="veh333" type="vType_car_13.820856415947674" route="route_north_to_east" depart="39.09" /><vehicle id="veh334" type="vType_car_21.834570976884557" route="route_north_to_west" depart="39.16" /><vehicle id="veh337" type="vType_car_22.848382100564347" route="route_north_to_west" depart="42.29" /><vehicle id="veh338" type="vType_car_37.91808554346658" route="route_south_to_north" depart="42.73" /><vehicle id="veh344" type="vType_car_26.486854344465947" route="route_north_to_south" depart="44.39" /><vehicle id="veh345" type="vType_car_16.842015537099567" route="route_north_to_east" depart="46.56" /><vehicle id="veh346" type="vType_car_20.171544210707612" route="route_north_to_west" depart="46.93" /><vehicle id="veh347" type="vType_car_18.511070891191153" route="route_north_to_east" depart="49.80" /><vehicle id="veh349" type="vType_car_25.472350296957277" route="route_north_to_south" depart="50.60" /><vehicle id="veh350" type="vType_car_17.547922936478273" route="route_north_to_east" depart="51.03" /><vehicle id="veh352" type="vType_car_29.969800267191875" route="route_north_to_south" depart="53.03" /><vehicle id="veh353" type="vType_car_20.262108797578232" route="route_north_to_east" depart="53.17" /><vehicle id="veh356" type="vType_car_21.380194658179597" route="route_north_to_east" depart="54.70" /></routes>