<?xml version='1.0' encoding='utf-8'?>
<routes><vType id="vType_car_18.053902327563943" accel="1.0" decel="5.0" sigma="0.0" length="4.5" maxSpeed="5.014972868767762" /><vType id="vType_car_20.667220933580598" accel="1.0" decel="5.0" sigma="0.0" length="4.5" maxSpeed="5.740894703772388" /><vType id="vType_car_19.356208490606424" accel="1.0" decel="5.0" sigma="0.0" length="4.5" maxSpeed="5.376724580724006" /><vType id="vType_car_10.542554482993447" accel="1.0" decel="5.0" sigma="0.0" length="4.5" maxSpeed="2.9284873563870684" /><vType id="vType_car_9.425766729404229" accel="1.0" decel="5.0" sigma="0.0" length="4.5" maxSpeed="2.618268535945619" /><vType id="vType_car_4.8408064846083345" accel="1.0" decel="5.0" sigma="0.0" length="4.5" maxSpeed="1.3446684679467595" /><vType id="vType_car_4.759344413989336" accel="1.0" decel="5.0" sigma="0.0" length="4.5" maxSpeed="1.3220401149970378" /><vType id="vType_car_16.309656402045" accel="1.0" decel="5.0" sigma="0.0" length="4.5" maxSpeed="4.530460111679167" /><vType id="vType_car_13.544465537931076" accel="1.0" decel="5.0" sigma="0.0" length="4.5" maxSpeed="3.7623515383141877" /><vType id="vType_car_10.940085520954428" accel="1.0" decel="5.0" sigma="0.0" length="4.5" maxSpeed="3.0389126447095633" /><vType id="vType_car_48.86705571934823" accel="1.0" decel="5.0" sigma="0.0" length="4.5" maxSpeed="13.574182144263396" /><vType id="vType_car_3.9063378249769363" accel="1.0" decel="5.0" sigma="0.0" length="4.5" maxSpeed="1.0850938402713712" /><vType id="vType_car_4.843627133957647" accel="1.0" decel="5.0" sigma="0.0" length="4.5" maxSpeed="1.345451981654902" /><vType id="vType_car_21.09075296947438" accel="1.0" decel="5.0" sigma="0.0" length="4.5" maxSpeed="5.858542491520661" /><vType id="vType_car_3.223154828231588" accel="1.0" decel="5.0" sigma="0.0" length="4.5" maxSpeed="0.8953207856198855" /><vType id="vType_car_19.880704958039694" accel="1.0" decel="5.0" sigma="0.0" length="4.5" maxSpeed="5.522418043899915" /><vType id="vType_car_4.419339534741923" accel="1.0" decel="5.0" sigma="0.0" length="4.5" maxSpeed="1.2275943152060895" /><vType id="vType_car_3.111469348911253" accel="1.0" decel="5.0" sigma="0.0" length="4.5" maxSpeed="0.8642970413642369" /><vType id="vType_car_25.3387575411244" accel="1.0" decel="5.0" sigma="0.0" length="4.5" maxSpeed="7.038543761423445" /><vType id="vType_car_17.313054978971525" accel="1.0" decel="5.0" sigma="0.0" length="4.5" maxSpeed="4.809181938603201" /><vType id="vType_car_4.9765124121698525" accel="1.0" decel="5.0" sigma="0.0" length="4.5" maxSpeed="1.38236455893607" /><vType id="vType_car_1.2295953982648964" accel="1.0" decel="5.0" sigma="0.0" length="4.5" maxSpeed="0.34155427729580456" /><vType id="vType_car_0.9221965486986724" accel="1.0" decel="5.0" sigma="0.0" length="4.5" maxSpeed="0.25616570797185345" /><vType id="vType_car_20.404109083580114" accel="1.0" decel="5.0" sigma="0.0" length="4.5" maxSpeed="5.667808078772254" /><vType id="vType_car_53.138801189523114" accel="1.0" decel="5.0" sigma="0.0" length="4.5" maxSpeed="14.760778108200865" /><vType id="vType_car_48.4153188066803" accel="1.0" decel="5.0" sigma="0.0" length="4.5" maxSpeed="13.448699668522304" /><vType id="vType_car_55.443770723695906" accel="1.0" decel="5.0" sigma="0.0" length="4.5" maxSpeed="15.401047423248862" /><vType id="vType_car_9.26149780597558" accel="1.0" decel="5.0" sigma="0.0" length="4.5" maxSpeed="2.572638279437661" /><vType id="vType_car_2.766589646096017" accel="1.0" decel="5.0" sigma="0.0" length="4.5" maxSpeed="0.7684971239155602" /><vType id="vType_car_8.935975910723055" accel="1.0" decel="5.0" sigma="0.0" length="4.5" maxSpeed="2.482215530756404" /><vType id="vType_car_45.98305317705773" accel="1.0" decel="5.0" sigma="0.0" length="4.5" maxSpeed="12.773070326960479" /><vType id="vType_car_24.86751784703821" accel="1.0" decel="5.0" sigma="0.0" length="4.5" maxSpeed="6.907643846399503" /><vType id="vType_car_20.67217102473377" accel="1.0" decel="5.0" sigma="0.0" length="4.5" maxSpeed="5.7422697290927145" /><vType id="vType_car_50.38021238183779" accel="1.0" decel="5.0" sigma="0.0" length="4.5" maxSpeed="13.994503439399384" /><vType id="vType_car_10.379267638271045" accel="1.0" decel="5.0" sigma="0.0" length="4.5" maxSpeed="2.883129899519735" /><vType id="vType_car_12.90918592481306" accel="1.0" decel="5.0" sigma="0.0" length="4.5" maxSpeed="3.585884979114739" /><vType id="vType_car_3.90951793396662" accel="1.0" decel="5.0" sigma="0.0" length="4.5" maxSpeed="1.0859772038796167" /><vType id="vType_car_32.56840543204278" accel="1.0" decel="5.0" sigma="0.0" length="4.5" maxSpeed="9.04677928667855" /><vType id="vType_car_10.370093992453947" accel="1.0" decel="5.0" sigma="0.0" length="4.5" maxSpeed="2.8805816645705407" /><vType id="vType_car_25.128833573075788" accel="1.0" decel="5.0" sigma="0.0" length="4.5" maxSpeed="6.980231548076608" /><vType id="vType_car_21.294959528989608" accel="1.0" decel="5.0" sigma="0.0" length="4.5" maxSpeed="5.915266535830447" /><vType id="vType_car_67.15878050301248" accel="1.0" decel="5.0" sigma="0.0" length="4.5" maxSpeed="18.655216806392357" /><vType id="vType_car_43.46582145094476" accel="1.0" decel="5.0" sigma="0.0" length="4.5" maxSpeed="12.073839291929099" /><vType id="vType_car_24.187654126394058" accel="1.0" decel="5.0" sigma="0.0" length="4.5" maxSpeed="6.718792812887238" /><vType id="vType_car_12.107215459498512" accel="1.0" decel="5.0" sigma="0.0" length="4.5" maxSpeed="3.363115405416253" /><vType id="vType_car_16.13185113916296" accel="1.0" decel="5.0" sigma="0.0" length="4.5" maxSpeed="4.4810697608786" /><vType id="vType_car_6.186282514517781" accel="1.0" decel="5.0" sigma="0.0" length="4.5" maxSpeed="1.7184118095882723" /><vType id="vType_car_17.94282440246604" accel="1.0" decel="5.0" sigma="0.0" length="4.5" maxSpeed="4.9841178895739" /><vType id="vType_car_2.222437024589127" accel="1.0" decel="5.0" sigma="0.0" length="4.5" maxSpeed="0.6173436179414241" /><vType id="vType_car_10.602258145664862" accel="1.0" decel="5.0" sigma="0.0" length="4.5" maxSpeed="2.9450717071291286" /><vType id="vType_car_8.763415262272291" accel="1.0" decel="5.0" sigma="0.0" length="4.5" maxSpeed="2.4342820172978588" /><vType id="vType_car_21.086134239707572" accel="1.0" decel="5.0" sigma="0.0" length="4.5" maxSpeed="5.8572595110298815" /><vType id="vType_car_53.37640422721679" accel="1.0" decel="5.0" sigma="0.0" length="4.5" maxSpeed="14.826778952004663" /><vType id="vType_car_27.083172668880497" accel="1.0" decel="5.0" sigma="0.0" length="4.5" maxSpeed="7.523103519133471" /><vType id="vType_car_2.2478540874530135" accel="1.0" decel="5.0" sigma="0.0" length="4.5" maxSpeed="0.6244039131813927" /><vType id="vType_car_122.43879390469161" accel="1.0" decel="5.0" sigma="0.0" length="4.5" maxSpeed="34.010776084636554" /><vType id="vType_car_23.667699664961685" accel="1.0" decel="5.0" sigma="0.0" length="4.5" maxSpeed="6.574361018044912" /><vType id="vType_car_25.345887481422796" accel="1.0" decel="5.0" sigma="0.0" length="4.5" maxSpeed="7.040524300395221" /><vType id="vType_car_18.018302469921842" accel="1.0" decel="5.0" sigma="0.0" length="4.5" maxSpeed="5.005084019422734" /><vType id="vType_car_3.904788065050685" accel="1.0" decel="5.0" sigma="0.0" length="4.5" maxSpeed="1.084663351402968" /><vType id="vType_car_7.859954808108217" accel="1.0" decel="5.0" sigma="0.0" length="4.5" maxSpeed="2.1833207800300602" /><vType id="vType_car_30.891934696989065" accel="1.0" decel="5.0" sigma="0.0" length="4.5" maxSpeed="8.581092971385852" /><vType id="vType_car_6.395484550798532" accel="1.0" decel="5.0" sigma="0.0" length="4.5" maxSpeed="1.7765234863329256" /><vType id="vType_car_3.631901306820636" accel="1.0" decel="5.0" sigma="0.0" length="4.5" maxSpeed="1.0088614741168433" /><vType id="vType_car_2.933644770137651" accel="1.0" decel="5.0" sigma="0.0" length="4.5" maxSpeed="0.8149013250382364" /><vType id="vType_car_3.194342966276637" accel="1.0" decel="5.0" sigma="0.0" length="4.5" maxSpeed="0.8873174906323992" /><vType id="vType_car_68.2875080013081" accel="1.0" decel="5.0" sigma="0.0" length="4.5" maxSpeed="18.968752222585582" /><vType id="vType_car_11.07456980571393" accel="1.0" decel="5.0" sigma="0.0" length="4.5" maxSpeed="3.0762693904760914" /><vType id="vType_car_30.507844465652603" accel="1.0" decel="5.0" sigma="0.0" length="4.5" maxSpeed="8.474401240459056" /><vType id="vType_car_2.957582804918342" accel="1.0" decel="5.0" sigma="0.0" length="4.5" maxSpeed="0.8215507791439839" /><vType id="vType_car_7.075766225629845" accel="1.0" decel="5.0" sigma="0.0" length="4.5" maxSpeed="1.9654906182305125" /><vType id="vType_car_20.330428508405223" accel="1.0" decel="5.0" sigma="0.0" length="4.5" maxSpeed="5.647341252334784" /><vType id="vType_car_6.818211243668391" accel="1.0" decel="5.0" sigma="0.0" length="4.5" maxSpeed="1.893947567685664" /><vType id="vType_car_30.285210671676275" accel="1.0" decel="5.0" sigma="0.0" length="4.5" maxSpeed="8.412558519910077" /><vType id="vType_car_4.543753928019725" accel="1.0" decel="5.0" sigma="0.0" length="4.5" maxSpeed="1.2621538688943679" /><vType id="vType_car_7.243285293397631" accel="1.0" decel="5.0" sigma="0.0" length="4.5" maxSpeed="2.012023692610453" /><vType id="vType_car_23.554794855376485" accel="1.0" decel="5.0" sigma="0.0" length="4.5" maxSpeed="6.542998570937913" /><vType id="vType_car_53.68317766964234" accel="1.0" decel="5.0" sigma="0.0" length="4.5" maxSpeed="14.911993797122872" /><vType id="vType_car_9.821715574242525" accel="1.0" decel="5.0" sigma="0.0" length="4.5" maxSpeed="2.728254326178479" /><vType id="vType_car_27.458053652241137" accel="1.0" decel="5.0" sigma="0.0" length="4.5" maxSpeed="7.627237125622538" /><vType id="vType_car_93.53090883745205" accel="1.0" decel="5.0" sigma="0.0" length="4.5" maxSpeed="25.980808010403344" /><vType id="vType_car_4.6317250394344525" accel="1.0" decel="5.0" sigma="0.0" length="4.5" maxSpeed="1.2865902887317924" /><vType id="vType_car_5.900797345436318" accel="1.0" decel="5.0" sigma="0.0" length="4.5" maxSpeed="1.6391103737323105" /><vType id="vType_car_42.263537755592125" accel="1.0" decel="5.0" sigma="0.0" length="4.5" maxSpeed="11.73987159877559" /><vType id="vType_car_43.73235496486606" accel="1.0" decel="5.0" sigma="0.0" length="4.5" maxSpeed="12.14787637912946" /><vType id="vType_car_2.766589646096018" accel="1.0" decel="5.0" sigma="0.0" length="4.5" maxSpeed="0.7684971239155606" /><vType id="vType_car_2.8119435747205412" accel="1.0" decel="5.0" sigma="0.0" length="4.5" maxSpeed="0.7810954374223725" /><vType id="vType_car_3.457389131162274" accel="1.0" decel="5.0" sigma="0.0" length="4.5" maxSpeed="0.9603858697672983" /><vType id="vType_car_2.888458968790523" accel="1.0" decel="5.0" sigma="0.0" length="4.5" maxSpeed="0.802349713552923" /><vType id="vType_car_6.660830634802875" accel="1.0" decel="5.0" sigma="0.0" length="4.5" maxSpeed="1.8502307318896873" /><vType id="vType_car_18.57552490088666" accel="1.0" decel="5.0" sigma="0.0" length="4.5" maxSpeed="5.159868028024072" /><vType id="vType_car_21.918182740538715" accel="1.0" decel="5.0" sigma="0.0" length="4.5" maxSpeed="6.088384094594087" /><vType id="vType_car_8.072617830072328" accel="1.0" decel="5.0" sigma="0.0" length="4.5" maxSpeed="2.242393841686758" /><vType id="vType_car_25.33961113823953" accel="1.0" decel="5.0" sigma="0.0" length="4.5" maxSpeed="7.038780871733202" /><vType id="vType_car_37.56960370797793" accel="1.0" decel="5.0" sigma="0.0" length="4.5" maxSpeed="10.43600102999387" /><vType id="vType_car_34.99558638760521" accel="1.0" decel="5.0" sigma="0.0" length="4.5" maxSpeed="9.720996218779224" /><vType id="vType_car_7.986729980861395" accel="1.0" decel="5.0" sigma="0.0" length="4.5" maxSpeed="2.218536105794832" /><vType id="vType_car_52.52591754308449" accel="1.0" decel="5.0" sigma="0.0" length="4.5" maxSpeed="14.590532650856803" /><vType id="vType_car_4.132676452138312" accel="1.0" decel="5.0" sigma="0.0" length="4.5" maxSpeed="1.147965681149531" /><vType id="vType_car_8.291196923016855" accel="1.0" decel="5.0" sigma="0.0" length="4.5" maxSpeed="2.303110256393571" /><vType id="vType_car_9.127074844826623" accel="1.0" decel="5.0" sigma="0.0" length="4.5" maxSpeed="2.5352985680073954" /><vType id="vType_car_7.643993719054578" accel="1.0" decel="5.0" sigma="0.0" length="4.5" maxSpeed="2.1233315886262716" /><vType id="vType_car_7.581793223178595" accel="1.0" decel="5.0" sigma="0.0" length="4.5" maxSpeed="2.106053673105165" /><vType id="vType_car_5.950026799372895" accel="1.0" decel="5.0" sigma="0.0" length="4.5" maxSpeed="1.6527852220480264" /><vType id="vType_car_5.196156277943273" accel="1.0" decel="5.0" sigma="0.0" length="4.5" maxSpeed="1.4433767438731313" /><route id="route_north_to_east" edges="north_to_center center_to_east" /><route id="route_north_to_south" edges="north_to_center center_to_south" /><route id="route_north_to_west" edges="north_to_center center_to_west" /><route id="route_east_to_west" edges="east_to_center center_to_west" /><route id="route_east_to_south" edges="east_to_center center_to_south" /><route id="route_east_to_north" edges="east_to_center center_to_north" /><route id="route_south_to_west" edges="south_to_center center_to_west" /><route id="route_south_to_north" edges="south_to_center center_to_north" /><route id="route_south_to_east" edges="south_to_center center_to_east" /><route id="route_west_to_south" edges="west_to_center center_to_south" /><route id="route_west_to_north" edges="west_to_center center_to_north" /><route id="route_west_to_east" edges="west_to_center center_to_east" /><vehicle id="veh2" type="vType_car_18.053902327563943" route="route_south_to_north" depart="0.05" /><vehicle id="veh5" type="vType_car_20.667220933580598" route="route_north_to_south" depart="0.05" /><vehicle id="veh6" type="vType_car_19.356208490606424" route="route_north_to_south" depart="0.05" /><vehicle id="veh9" type="vType_car_9.425766729404229" route="route_north_to_south" depart="0.05" /><vehicle id="veh81" type="vType_car_13.544465537931076" route="route_south_to_north" depart="0.05" /><vehicle id="veh89" type="vType_car_48.86705571934823" route="route_east_to_west" depart="0.96" /><vehicle id="veh93" type="vType_car_21.09075296947438" route="route_west_to_east" depart="9.61" /><vehicle id="veh97" type="vType_car_19.880704958039694" route="route_west_to_east" depart="13.34" /><vehicle id="veh154" type="vType_car_17.94282440246604" route="route_south_to_east" depart="27.19" /><vehicle id="veh172" type="vType_car_7.859954808108217" route="route_east_to_north" depart="32.84" /><vehicle id="veh173" type="vType_car_30.891934696989065" route="route_south_to_east" depart="33.06" /><vehicle id="veh184" type="vType_car_20.330428508405223" route="route_north_to_west" depart="37.16" /><vehicle id="veh186" type="vType_car_30.285210671676275" route="route_south_to_east" depart="37.21" /><vehicle id="veh189" type="vType_car_23.554794855376485" route="route_east_to_west" depart="39.49" /><vehicle id="veh193" type="vType_car_27.458053652241137" route="route_east_to_west" depart="40.17" /><vehicle id="veh207" type="vType_car_21.918182740538715" route="route_east_to_west" depart="43.72" /><vehicle id="veh215" type="vType_car_52.52591754308449" route="route_west_to_east" depart="45.36" /><vehicle id="veh218" type="vType_car_9.127074844826623" route="route_east_to_north" depart="49.73" /></routes>