<?xml version='1.0' encoding='utf-8'?>
<routes><vType id="vType_car_11.535358639070576" accel="1.0" decel="5.0" sigma="0.0" length="4.5" maxSpeed="3.2042662886307154" /><vType id="vType_car_11.419689240767958" accel="1.0" decel="5.0" sigma="0.0" length="4.5" maxSpeed="3.1721359002133216" /><vType id="vType_car_34.09190576148348" accel="1.0" decel="5.0" sigma="0.0" length="4.5" maxSpeed="9.4699738226343" /><vType id="vType_car_42.308448026420834" accel="1.0" decel="5.0" sigma="0.0" length="4.5" maxSpeed="11.752346674005787" /><vType id="vType_car_40.774974672537994" accel="1.0" decel="5.0" sigma="0.0" length="4.5" maxSpeed="11.326381853482776" /><vType id="vType_car_37.847086419162075" accel="1.0" decel="5.0" sigma="0.0" length="4.5" maxSpeed="10.513079560878355" /><vType id="vType_car_4.828772502645872" accel="1.0" decel="5.0" sigma="0.0" length="4.5" maxSpeed="1.341325695179409" /><vType id="vType_car_10.096475406617989" accel="1.0" decel="5.0" sigma="0.0" length="4.5" maxSpeed="2.8045765018383304" /><vType id="vType_car_60.8484334264023" accel="1.0" decel="5.0" sigma="0.0" length="4.5" maxSpeed="16.902342618445083" /><vType id="vType_car_62.77386991833704" accel="1.0" decel="5.0" sigma="0.0" length="4.5" maxSpeed="17.437186088426955" /><vType id="vType_car_7.311672254435012" accel="1.0" decel="5.0" sigma="0.0" length="4.5" maxSpeed="2.031020070676392" /><vType id="vType_car_20.492076451635384" accel="1.0" decel="5.0" sigma="0.0" length="4.5" maxSpeed="5.6922434587876065" /><vType id="vType_car_61.817211729294" accel="1.0" decel="5.0" sigma="0.0" length="4.5" maxSpeed="17.171447702581666" /><vType id="vType_car_86.98590457574238" accel="1.0" decel="5.0" sigma="0.0" length="4.5" maxSpeed="24.16275127103955" /><vType id="vType_car_67.58123035478876" accel="1.0" decel="5.0" sigma="0.0" length="4.5" maxSpeed="18.77256398744132" /><vType id="vType_car_12.948924993192266" accel="1.0" decel="5.0" sigma="0.0" length="4.5" maxSpeed="3.596923609220074" /><vType id="vType_car_59.75723308349699" accel="1.0" decel="5.0" sigma="0.0" length="4.5" maxSpeed="16.599231412082496" /><vType id="vType_car_12.020459689118852" accel="1.0" decel="5.0" sigma="0.0" length="4.5" maxSpeed="3.339016580310792" /><vType id="vType_car_41.77633510914354" accel="1.0" decel="5.0" sigma="0.0" length="4.5" maxSpeed="11.60453753031765" /><vType id="vType_car_18.98192567219507" accel="1.0" decel="5.0" sigma="0.0" length="4.5" maxSpeed="5.272757131165298" /><route id="route_north_to_east" edges="north_to_center center_to_east" /><route id="route_north_to_south" edges="north_to_center center_to_south" /><route id="route_north_to_west" edges="north_to_center center_to_west" /><route id="route_east_to_west" edges="east_to_center center_to_west" /><route id="route_east_to_south" edges="east_to_center center_to_south" /><route id="route_east_to_north" edges="east_to_center center_to_north" /><route id="route_south_to_west" edges="south_to_center center_to_west" /><route id="route_south_to_north" edges="south_to_center center_to_north" /><route id="route_south_to_east" edges="south_to_center center_to_east" /><route id="route_west_to_south" edges="west_to_center center_to_south" /><route id="route_west_to_north" edges="west_to_center center_to_north" /><route id="route_west_to_east" edges="west_to_center center_to_east" /><vehicle id="veh92" type="vType_car_34.09190576148348" route="route_west_to_east" depart="0.04" /><vehicle id="veh93" type="vType_car_42.308448026420834" route="route_west_to_east" depart="1.68" /><vehicle id="veh94" type="vType_car_40.774974672537994" route="route_west_to_east" depart="3.90" /><vehicle id="veh102" type="vType_car_10.096475406617989" route="route_north_to_west" depart="18.77" /><vehicle id="veh106" type="vType_car_62.77386991833704" route="route_west_to_east" depart="21.45" /><vehicle id="veh110" type="vType_car_20.492076451635384" route="route_north_to_east" depart="34.21" /><vehicle id="veh113" type="vType_car_67.58123035478876" route="route_west_to_east" depart="43.54" /><vehicle id="veh115" type="vType_car_59.75723308349699" route="route_west_to_east" depart="52.44" /><vehicle id="veh118" type="vType_car_41.77633510914354" route="route_west_to_east" depart="55.51" /></routes>