<?xml version='1.0' encoding='utf-8'?>
<routes><vType id="vType_car_20.30427878335406" accel="1.0" decel="5.0" sigma="0.0" length="4.5" maxSpeed="5.640077439820573" /><vType id="vType_car_17.04504399349318" accel="1.0" decel="5.0" sigma="0.0" length="4.5" maxSpeed="4.734734442636994" /><vType id="vType_car_11.256469936045091" accel="1.0" decel="5.0" sigma="0.0" length="4.5" maxSpeed="3.12679720445697" /><vType id="vType_car_11.869657018678874" accel="1.0" decel="5.0" sigma="0.0" length="4.5" maxSpeed="3.29712694963302" /><vType id="vType_car_13.843966987147072" accel="1.0" decel="5.0" sigma="0.0" length="4.5" maxSpeed="3.845546385318631" /><vType id="vType_car_10.543370623657646" accel="1.0" decel="5.0" sigma="0.0" length="4.5" maxSpeed="2.9287140621271237" /><vType id="vType_car_15.488316996029178" accel="1.0" decel="5.0" sigma="0.0" length="4.5" maxSpeed="4.302310276674771" /><vType id="vType_car_12.896712055139009" accel="1.0" decel="5.0" sigma="0.0" length="4.5" maxSpeed="3.582420015316391" /><vType id="vType_car_3.8782450832025894" accel="1.0" decel="5.0" sigma="0.0" length="4.5" maxSpeed="1.0772903008896082" /><vType id="vType_car_13.744962352623148" accel="1.0" decel="5.0" sigma="0.0" length="4.5" maxSpeed="3.818045097950874" /><vType id="vType_car_10.69894859535001" accel="1.0" decel="5.0" sigma="0.0" length="4.5" maxSpeed="2.971930165375003" /><vType id="vType_car_54.740321264710126" accel="1.0" decel="5.0" sigma="0.0" length="4.5" maxSpeed="15.205644795752812" /><vType id="vType_car_1.7618660647023943" accel="1.0" decel="5.0" sigma="0.0" length="4.5" maxSpeed="0.4894072401951095" /><vType id="vType_car_3.7322432205718292" accel="1.0" decel="5.0" sigma="0.0" length="4.5" maxSpeed="1.0367342279366192" /><vType id="vType_car_34.65146201914424" accel="1.0" decel="5.0" sigma="0.0" length="4.5" maxSpeed="9.625406116428955" /><vType id="vType_car_1.9220357069480665" accel="1.0" decel="5.0" sigma="0.0" length="4.5" maxSpeed="0.5338988074855741" /><vType id="vType_car_15.508315950734493" accel="1.0" decel="5.0" sigma="0.0" length="4.5" maxSpeed="4.307865541870693" /><vType id="vType_car_3.641975350388248" accel="1.0" decel="5.0" sigma="0.0" length="4.5" maxSpeed="1.0116598195522912" /><vType id="vType_car_2.7330050584995758" accel="1.0" decel="5.0" sigma="0.0" length="4.5" maxSpeed="0.7591680718054377" /><vType id="vType_car_3.697028105317733" accel="1.0" decel="5.0" sigma="0.0" length="4.5" maxSpeed="1.026952251477148" /><vType id="vType_car_56.06099981505769" accel="1.0" decel="5.0" sigma="0.0" length="4.5" maxSpeed="15.572499948627136" /><vType id="vType_car_20.93554800987889" accel="1.0" decel="5.0" sigma="0.0" length="4.5" maxSpeed="5.815430002744136" /><vType id="vType_car_51.034387953575525" accel="1.0" decel="5.0" sigma="0.0" length="4.5" maxSpeed="14.1762188759932" /><vType id="vType_car_43.28729900512586" accel="1.0" decel="5.0" sigma="0.0" length="4.5" maxSpeed="12.024249723646072" /><vType id="vType_car_23.528503258379256" accel="1.0" decel="5.0" sigma="0.0" length="4.5" maxSpeed="6.535695349549793" /><vType id="vType_car_21.5988105754498" accel="1.0" decel="5.0" sigma="0.0" length="4.5" maxSpeed="5.999669604291611" /><vType id="vType_car_21.09884437609979" accel="1.0" decel="5.0" sigma="0.0" length="4.5" maxSpeed="5.860790104472164" /><vType id="vType_car_21.06597508936879" accel="1.0" decel="5.0" sigma="0.0" length="4.5" maxSpeed="5.851659747046886" /><vType id="vType_car_24.151013507845914" accel="1.0" decel="5.0" sigma="0.0" length="4.5" maxSpeed="6.708614863290531" /><vType id="vType_car_40.78485445056838" accel="1.0" decel="5.0" sigma="0.0" length="4.5" maxSpeed="11.329126236268994" /><vType id="vType_car_23.850016639613443" accel="1.0" decel="5.0" sigma="0.0" length="4.5" maxSpeed="6.6250046221148455" /><vType id="vType_car_17.736317284338796" accel="1.0" decel="5.0" sigma="0.0" length="4.5" maxSpeed="4.926754801205221" /><vType id="vType_car_11.896979322091868" accel="1.0" decel="5.0" sigma="0.0" length="4.5" maxSpeed="3.304716478358852" /><vType id="vType_car_58.925079200921644" accel="1.0" decel="5.0" sigma="0.0" length="4.5" maxSpeed="16.368077555811567" /><vType id="vType_car_10.2023777902864" accel="1.0" decel="5.0" sigma="0.0" length="4.5" maxSpeed="2.833993830635111" /><vType id="vType_car_11.261165500434137" accel="1.0" decel="5.0" sigma="0.0" length="4.5" maxSpeed="3.1281015278983713" /><vType id="vType_car_14.800622339010312" accel="1.0" decel="5.0" sigma="0.0" length="4.5" maxSpeed="4.11128398305842" /><vType id="vType_car_36.40275280792603" accel="1.0" decel="5.0" sigma="0.0" length="4.5" maxSpeed="10.111875779979451" /><vType id="vType_car_11.577513735311937" accel="1.0" decel="5.0" sigma="0.0" length="4.5" maxSpeed="3.2159760375866493" /><vType id="vType_car_3.5237321294047885" accel="1.0" decel="5.0" sigma="0.0" length="4.5" maxSpeed="0.978814480390219" /><vType id="vType_car_42.42292204474302" accel="1.0" decel="5.0" sigma="0.0" length="4.5" maxSpeed="11.784145012428615" /><vType id="vType_car_19.686994754891955" accel="1.0" decel="5.0" sigma="0.0" length="4.5" maxSpeed="5.468609654136654" /><vType id="vType_car_12.89586427976913" accel="1.0" decel="5.0" sigma="0.0" length="4.5" maxSpeed="3.5821845221580917" /><vType id="vType_car_16.792058272758325" accel="1.0" decel="5.0" sigma="0.0" length="4.5" maxSpeed="4.664460631321757" /><vType id="vType_car_18.271724010922117" accel="1.0" decel="5.0" sigma="0.0" length="4.5" maxSpeed="5.075478891922811" /><vType id="vType_car_11.173781961120286" accel="1.0" decel="5.0" sigma="0.0" length="4.5" maxSpeed="3.1038283225334125" /><vType id="vType_truck_16.229496927926757" accel="1.0" decel="5.0" sigma="0.0" length="8" maxSpeed="4.508193591090766" /><vType id="vType_car_20.252632028031762" accel="1.0" decel="5.0" sigma="0.0" length="4.5" maxSpeed="5.625731118897711" /><vType id="vType_car_16.503749949334797" accel="1.0" decel="5.0" sigma="0.0" length="4.5" maxSpeed="4.584374985926332" /><vType id="vType_car_4.1019527088549825" accel="1.0" decel="5.0" sigma="0.0" length="4.5" maxSpeed="1.139431308015273" /><vType id="vType_car_24.52620541414934" accel="1.0" decel="5.0" sigma="0.0" length="4.5" maxSpeed="6.812834837263706" /><vType id="vType_car_24.303280710104207" accel="1.0" decel="5.0" sigma="0.0" length="4.5" maxSpeed="6.75091130836228" /><vType id="vType_car_15.546850758128416" accel="1.0" decel="5.0" sigma="0.0" length="4.5" maxSpeed="4.318569655035671" /><vType id="vType_car_16.739730729634296" accel="1.0" decel="5.0" sigma="0.0" length="4.5" maxSpeed="4.649925202676193" /><vType id="vType_car_16.067004175788224" accel="1.0" decel="5.0" sigma="0.0" length="4.5" maxSpeed="4.463056715496728" /><vType id="vType_car_17.890816287926288" accel="1.0" decel="5.0" sigma="0.0" length="4.5" maxSpeed="4.969671191090636" /><vType id="vType_car_6.287380329018769" accel="1.0" decel="5.0" sigma="0.0" length="4.5" maxSpeed="1.746494535838547" /><vType id="vType_car_35.935248607802485" accel="1.0" decel="5.0" sigma="0.0" length="4.5" maxSpeed="9.982013502167357" /><vType id="vType_car_16.555667614176333" accel="1.0" decel="5.0" sigma="0.0" length="4.5" maxSpeed="4.598796559493426" /><vType id="vType_bus_57.43166276386332" accel="1.0" decel="5.0" sigma="0.0" length="13" maxSpeed="15.9532396566287" /><vType id="vType_bus_27.018101423394246" accel="1.0" decel="5.0" sigma="0.0" length="13" maxSpeed="7.505028173165068" /><vType id="vType_car_9.33373068952156" accel="1.0" decel="5.0" sigma="0.0" length="4.5" maxSpeed="2.5927029693115444" /><vType id="vType_car_27.138129625230057" accel="1.0" decel="5.0" sigma="0.0" length="4.5" maxSpeed="7.538369340341682" /><vType id="vType_car_20.874534909541385" accel="1.0" decel="5.0" sigma="0.0" length="4.5" maxSpeed="5.798481919317052" /><vType id="vType_car_27.02764087185215" accel="1.0" decel="5.0" sigma="0.0" length="4.5" maxSpeed="7.50767801995893" /><vType id="vType_car_35.26440172206202" accel="1.0" decel="5.0" sigma="0.0" length="4.5" maxSpeed="9.795667145017227" /><vType id="vType_car_19.965104496169666" accel="1.0" decel="5.0" sigma="0.0" length="4.5" maxSpeed="5.5458623600471295" /><vType id="vType_car_36.118636273749715" accel="1.0" decel="5.0" sigma="0.0" length="4.5" maxSpeed="10.032954520486031" /><vType id="vType_car_16.385018818207826" accel="1.0" decel="5.0" sigma="0.0" length="4.5" maxSpeed="4.55139411616884" /><vType id="vType_car_33.24986628135661" accel="1.0" decel="5.0" sigma="0.0" length="4.5" maxSpeed="9.236073967043502" /><vType id="vType_car_4.966418040443318" accel="1.0" decel="5.0" sigma="0.0" length="4.5" maxSpeed="1.3795605667898105" /><vType id="vType_car_30.105783922853597" accel="1.0" decel="5.0" sigma="0.0" length="4.5" maxSpeed="8.362717756348221" /><vType id="vType_car_3.3725879161382357" accel="1.0" decel="5.0" sigma="0.0" length="4.5" maxSpeed="0.9368299767050654" /><vType id="vType_truck_32.67132540137706" accel="1.0" decel="5.0" sigma="0.0" length="8" maxSpeed="9.075368167049183" /><vType id="vType_car_28.642747809941145" accel="1.0" decel="5.0" sigma="0.0" length="4.5" maxSpeed="7.956318836094763" /><vType id="vType_car_9.709115316165635" accel="1.0" decel="5.0" sigma="0.0" length="4.5" maxSpeed="2.6969764767126763" /><vType id="vType_car_13.968209124179992" accel="1.0" decel="5.0" sigma="0.0" length="4.5" maxSpeed="3.8800580900499977" /><vType id="vType_car_38.63555321777506" accel="1.0" decel="5.0" sigma="0.0" length="4.5" maxSpeed="10.732098116048627" /><vType id="vType_car_3.69880230095175" accel="1.0" decel="5.0" sigma="0.0" length="4.5" maxSpeed="1.0274450835977083" /><vType id="vType_car_29.37718121668006" accel="1.0" decel="5.0" sigma="0.0" length="4.5" maxSpeed="8.160328115744461" /><vType id="vType_car_4.144143621279684" accel="1.0" decel="5.0" sigma="0.0" length="4.5" maxSpeed="1.1511510059110235" /><vType id="vType_car_33.19480301111806" accel="1.0" decel="5.0" sigma="0.0" length="4.5" maxSpeed="9.220778614199462" /><vType id="vType_car_25.190150766184775" accel="1.0" decel="5.0" sigma="0.0" length="4.5" maxSpeed="6.997264101717993" /><vType id="vType_car_28.901205496818896" accel="1.0" decel="5.0" sigma="0.0" length="4.5" maxSpeed="8.028112638005249" /><vType id="vType_car_32.46495130176893" accel="1.0" decel="5.0" sigma="0.0" length="4.5" maxSpeed="9.018042028269146" /><vType id="vType_car_36.093008075932445" accel="1.0" decel="5.0" sigma="0.0" length="4.5" maxSpeed="10.025835576647902" /><vType id="vType_car_6.877339013247284" accel="1.0" decel="5.0" sigma="0.0" length="4.5" maxSpeed="1.9103719481242456" /><vType id="vType_car_21.86124923281736" accel="1.0" decel="5.0" sigma="0.0" length="4.5" maxSpeed="6.072569231338155" /><vType id="vType_car_31.162952568453786" accel="1.0" decel="5.0" sigma="0.0" length="4.5" maxSpeed="8.656375713459385" /><vType id="vType_car_7.8793045758491935" accel="1.0" decel="5.0" sigma="0.0" length="4.5" maxSpeed="2.188695715513665" /><vType id="vType_car_17.2701041391738" accel="1.0" decel="5.0" sigma="0.0" length="4.5" maxSpeed="4.7972511497705" /><vType id="vType_car_39.779702529307215" accel="1.0" decel="5.0" sigma="0.0" length="4.5" maxSpeed="11.049917369252004" /><vType id="vType_car_21.444479160461444" accel="1.0" decel="5.0" sigma="0.0" length="4.5" maxSpeed="5.956799766794846" /><vType id="vType_car_41.96760879694133" accel="1.0" decel="5.0" sigma="0.0" length="4.5" maxSpeed="11.65766911026148" /><vType id="vType_car_27.08753873757135" accel="1.0" decel="5.0" sigma="0.0" length="4.5" maxSpeed="7.524316315992041" /><vType id="vType_car_48.03333708617188" accel="1.0" decel="5.0" sigma="0.0" length="4.5" maxSpeed="13.342593635047745" /><vType id="vType_car_10.904639423562866" accel="1.0" decel="5.0" sigma="0.0" length="4.5" maxSpeed="3.0290665065452407" /><vType id="vType_car_24.49713540717233" accel="1.0" decel="5.0" sigma="0.0" length="4.5" maxSpeed="6.804759835325647" /><vType id="vType_car_51.2985818439547" accel="1.0" decel="5.0" sigma="0.0" length="4.5" maxSpeed="14.249606067765194" /><vType id="vType_car_4.060546364148397" accel="1.0" decel="5.0" sigma="0.0" length="4.5" maxSpeed="1.127929545596777" /><vType id="vType_car_40.742291824273885" accel="1.0" decel="5.0" sigma="0.0" length="4.5" maxSpeed="11.317303284520523" /><vType id="vType_car_4.065082646586616" accel="1.0" decel="5.0" sigma="0.0" length="4.5" maxSpeed="1.1291896240518378" /><vType id="vType_car_46.044139908642826" accel="1.0" decel="5.0" sigma="0.0" length="4.5" maxSpeed="12.790038863511896" /><vType id="vType_car_10.222342560045664" accel="1.0" decel="5.0" sigma="0.0" length="4.5" maxSpeed="2.8395396000126847" /><vType id="vType_car_56.59066667800494" accel="1.0" decel="5.0" sigma="0.0" length="4.5" maxSpeed="15.719629632779151" /><vType id="vType_car_39.427281849385786" accel="1.0" decel="5.0" sigma="0.0" length="4.5" maxSpeed="10.952022735940496" /><vType id="vType_car_43.38878749073998" accel="1.0" decel="5.0" sigma="0.0" length="4.5" maxSpeed="12.052440969649993" /><vType id="vType_car_14.664864451360085" accel="1.0" decel="5.0" sigma="0.0" length="4.5" maxSpeed="4.0735734587111345" /><vType id="vType_car_3.938927587466173" accel="1.0" decel="5.0" sigma="0.0" length="4.5" maxSpeed="1.0941465520739369" /><vType id="vType_bus_3.8181831116056437" accel="1.0" decel="5.0" sigma="0.0" length="13" maxSpeed="1.0606064198904566" /><route id="route_north_to_east" edges="north_to_center center_to_east" /><route id="route_north_to_south" edges="north_to_center center_to_south" /><route id="route_north_to_west" edges="north_to_center center_to_west" /><route id="route_east_to_west" edges="east_to_center center_to_west" /><route id="route_east_to_south" edges="east_to_center center_to_south" /><route id="route_east_to_north" edges="east_to_center center_to_north" /><route id="route_south_to_west" edges="south_to_center center_to_west" /><route id="route_south_to_north" edges="south_to_center center_to_north" /><route id="route_south_to_east" edges="south_to_center center_to_east" /><route id="route_west_to_south" edges="west_to_center center_to_south" /><route id="route_west_to_north" edges="west_to_center center_to_north" /><route id="route_west_to_east" edges="west_to_center center_to_east" /><vehicle id="veh68" type="vType_car_20.30427878335406" route="route_east_to_south" depart="0.04" /><vehicle id="veh83" type="vType_car_17.04504399349318" route="route_east_to_south" depart="0.04" /><vehicle id="veh119" type="vType_car_11.256469936045091" route="route_north_to_east" depart="0.04" /><vehicle id="veh156" type="vType_car_11.869657018678874" route="route_north_to_east" depart="0.04" /><vehicle id="veh202" type="vType_car_10.543370623657646" route="route_south_to_north" depart="0.04" /><vehicle id="veh231" type="vType_car_15.488316996029178" route="route_north_to_south" depart="0.04" /><vehicle id="veh238" type="vType_car_13.744962352623148" route="route_south_to_north" depart="0.04" /><vehicle id="veh165" type="vType_car_10.69894859535001" route="route_north_to_east" depart="0.04" /><vehicle id="veh243" type="vType_car_34.65146201914424" route="route_east_to_west" depart="5.79" /><vehicle id="veh245" type="vType_car_15.508315950734493" route="route_east_to_north" depart="7.97" /><vehicle id="veh250" type="vType_car_56.06099981505769" route="route_east_to_west" depart="8.65" /><vehicle id="veh254" type="vType_car_20.93554800987889" route="route_east_to_south" depart="11.94" /><vehicle id="veh255" type="vType_car_51.034387953575525" route="route_east_to_west" depart="15.09" /><vehicle id="veh256" type="vType_car_43.28729900512586" route="route_east_to_west" depart="15.55" /><vehicle id="veh257" type="vType_car_23.528503258379256" route="route_east_to_south" depart="16.56" /><vehicle id="veh258" type="vType_car_21.5988105754498" route="route_east_to_south" depart="19.49" /><vehicle id="veh259" type="vType_car_21.09884437609979" route="route_south_to_east" depart="20.74" /><vehicle id="veh260" type="vType_car_21.06597508936879" route="route_east_to_south" depart="21.85" /><vehicle id="veh262" type="vType_car_24.151013507845914" route="route_east_to_south" depart="25.60" /><vehicle id="veh263" type="vType_car_40.78485445056838" route="route_east_to_west" depart="25.89" /><vehicle id="veh265" type="vType_car_23.850016639613443" route="route_east_to_south" depart="27.57" /><vehicle id="veh268" type="vType_car_17.736317284338796" route="route_south_to_east" depart="29.54" /><vehicle id="veh269" type="vType_car_11.896979322091868" route="route_west_to_north" depart="30.32" /><vehicle id="veh271" type="vType_car_58.925079200921644" route="route_east_to_west" depart="32.43" /><vehicle id="veh273" type="vType_car_11.261165500434137" route="route_east_to_north" depart="33.33" /><vehicle id="veh277" type="vType_car_14.800622339010312" route="route_north_to_south" depart="34.51" /><vehicle id="veh279" type="vType_car_36.40275280792603" route="route_south_to_west" depart="36.58" /><vehicle id="veh283" type="vType_car_42.42292204474302" route="route_south_to_west" depart="40.58" /><vehicle id="veh284" type="vType_car_19.686994754891955" route="route_north_to_south" depart="43.02" /><vehicle id="veh285" type="vType_car_12.89586427976913" route="route_south_to_east" depart="44.41" /><vehicle id="veh290" type="vType_car_16.792058272758325" route="route_west_to_east" depart="45.59" /><vehicle id="veh291" type="vType_car_18.271724010922117" route="route_west_to_east" depart="45.73" /><vehicle id="veh293" type="vType_car_11.173781961120286" route="route_west_to_north" depart="49.56" /><vehicle id="veh297" type="vType_truck_16.229496927926757" route="route_north_to_east" depart="51.24" /><vehicle id="veh298" type="vType_car_20.252632028031762" route="route_north_to_south" depart="51.71" /><vehicle id="veh300" type="vType_car_16.503749949334797" route="route_south_to_east" depart="51.92" /><vehicle id="veh302" type="vType_car_24.52620541414934" route="route_north_to_south" depart="55.00" /><vehicle id="veh303" type="vType_car_24.303280710104207" route="route_south_to_north" depart="55.14" /><vehicle id="veh304" type="vType_car_15.546850758128416" route="route_south_to_east" depart="55.75" /><vehicle id="veh305" type="vType_car_16.739730729634296" route="route_north_to_west" depart="55.82" /><vehicle id="veh306" type="vType_car_16.067004175788224" route="route_north_to_west" depart="58.79" /><vehicle id="veh308" type="vType_car_17.890816287926288" route="route_west_to_east" depart="59.72" /><vehicle id="veh311" type="vType_car_35.935248607802485" route="route_south_to_north" depart="61.36" /><vehicle id="veh312" type="vType_car_16.555667614176333" route="route_north_to_west" depart="61.36" /><vehicle id="veh307" type="vType_bus_57.43166276386332" route="route_north_to_south" depart="61.72" /><vehicle id="veh314" type="vType_bus_27.018101423394246" route="route_south_to_north" depart="63.15" /><vehicle id="veh321" type="vType_car_20.874534909541385" route="route_south_to_east" depart="64.69" /><vehicle id="veh322" type="vType_car_27.02764087185215" route="route_north_to_south" depart="64.94" /><vehicle id="veh323" type="vType_car_35.26440172206202" route="route_south_to_north" depart="65.44" /><vehicle id="veh325" type="vType_car_19.965104496169666" route="route_west_to_east" depart="65.58" /><vehicle id="veh326" type="vType_car_36.118636273749715" route="route_south_to_north" depart="67.44" /><vehicle id="veh327" type="vType_car_16.385018818207826" route="route_west_to_north" depart="67.90" /><vehicle id="veh329" type="vType_car_33.24986628135661" route="route_south_to_north" depart="68.65" /><vehicle id="veh332" type="vType_car_30.105783922853597" route="route_south_to_north" depart="70.44" /><vehicle id="veh336" type="vType_car_28.642747809941145" route="route_south_to_north" depart="76.41" /><vehicle id="veh338" type="vType_car_9.709115316165635" route="route_east_to_north" depart="77.06" /><vehicle id="veh340" type="vType_car_13.968209124179992" route="route_north_to_east" depart="79.31" /><vehicle id="veh346" type="vType_car_38.63555321777506" route="route_south_to_west" depart="82.31" /><vehicle id="veh352" type="vType_car_29.37718121668006" route="route_west_to_east" depart="88.50" /><vehicle id="veh362" type="vType_car_33.19480301111806" route="route_west_to_south" depart="93.51" /><vehicle id="veh366" type="vType_car_25.190150766184775" route="route_west_to_north" depart="94.51" /><vehicle id="veh369" type="vType_car_28.901205496818896" route="route_west_to_east" depart="95.08" /><vehicle id="veh373" type="vType_car_36.093008075932445" route="route_west_to_east" depart="96.80" /><vehicle id="veh376" type="vType_car_21.86124923281736" route="route_west_to_south" depart="98.23" /><vehicle id="veh377" type="vType_car_31.162952568453786" route="route_west_to_north" depart="98.73" /><vehicle id="veh380" type="vType_car_17.2701041391738" route="route_north_to_west" depart="99.01" /><vehicle id="veh381" type="vType_car_39.779702529307215" route="route_west_to_east" depart="99.08" /><vehicle id="veh384" type="vType_car_21.444479160461444" route="route_west_to_east" depart="100.66" /><vehicle id="veh385" type="vType_car_41.96760879694133" route="route_west_to_east" depart="100.69" /><vehicle id="veh386" type="vType_car_27.08753873757135" route="route_west_to_north" depart="100.69" /><vehicle id="veh387" type="vType_car_48.03333708617188" route="route_west_to_east" depart="102.37" /><vehicle id="veh390" type="vType_car_24.49713540717233" route="route_west_to_east" depart="103.23" /><vehicle id="veh391" type="vType_car_51.2985818439547" route="route_west_to_east" depart="104.09" /><vehicle id="veh394" type="vType_car_40.742291824273885" route="route_west_to_east" depart="106.77" /><vehicle id="veh398" type="vType_car_46.044139908642826" route="route_west_to_east" depart="108.81" /><vehicle id="veh401" type="vType_car_56.59066667800494" route="route_west_to_east" depart="111.13" /><vehicle id="veh403" type="vType_car_39.427281849385786" route="route_east_to_west" depart="112.28" /><vehicle id="veh408" type="vType_car_14.664864451360085" route="route_east_to_north" depart="115.35" /></routes>