<?xml version='1.0' encoding='utf-8'?>
<routes><vType id="vType_car_18.782616295988856" accel="1.0" decel="5.0" sigma="0.0" length="4.5" maxSpeed="5.2173934155524595" /><vType id="vType_car_24.801885082671195" accel="1.0" decel="5.0" sigma="0.0" length="4.5" maxSpeed="6.8894125229642205" /><vType id="vType_car_19.305317979564446" accel="1.0" decel="5.0" sigma="0.0" length="4.5" maxSpeed="5.36258832765679" /><vType id="vType_car_12.19427319528282" accel="1.0" decel="5.0" sigma="0.0" length="4.5" maxSpeed="3.387298109800783" /><vType id="vType_car_8.252694927494925" accel="1.0" decel="5.0" sigma="0.0" length="4.5" maxSpeed="2.292415257637479" /><vType id="vType_car_11.92842745082296" accel="1.0" decel="5.0" sigma="0.0" length="4.5" maxSpeed="3.3134520696730445" /><vType id="vType_car_36.35184190939578" accel="1.0" decel="5.0" sigma="0.0" length="4.5" maxSpeed="10.09773386372105" /><vType id="vType_car_25.02161364249702" accel="1.0" decel="5.0" sigma="0.0" length="4.5" maxSpeed="6.95044823402695" /><vType id="vType_car_3.777726317540352" accel="1.0" decel="5.0" sigma="0.0" length="4.5" maxSpeed="1.0493684215389867" /><vType id="vType_car_3.0756183665143717" accel="1.0" decel="5.0" sigma="0.0" length="4.5" maxSpeed="0.854338435142881" /><vType id="vType_car_0.8904186321998894" accel="1.0" decel="5.0" sigma="0.0" length="4.5" maxSpeed="0.2473385089444137" /><vType id="vType_car_24.649199638438382" accel="1.0" decel="5.0" sigma="0.0" length="4.5" maxSpeed="6.846999899566217" /><vType id="vType_car_51.17638413251105" accel="1.0" decel="5.0" sigma="0.0" length="4.5" maxSpeed="14.215662259030848" /><vType id="vType_car_23.260001284615903" accel="1.0" decel="5.0" sigma="0.0" length="4.5" maxSpeed="6.461111467948862" /><vType id="vType_car_2.591659819488989" accel="1.0" decel="5.0" sigma="0.0" length="4.5" maxSpeed="0.7199055054136081" /><vType id="vType_car_43.63444888898099" accel="1.0" decel="5.0" sigma="0.0" length="4.5" maxSpeed="12.120680246939164" /><vType id="vType_car_29.571596418626186" accel="1.0" decel="5.0" sigma="0.0" length="4.5" maxSpeed="8.214332338507274" /><vType id="vType_car_35.4824648970701" accel="1.0" decel="5.0" sigma="0.0" length="4.5" maxSpeed="9.85624024918614" /><vType id="vType_car_28.103936497182566" accel="1.0" decel="5.0" sigma="0.0" length="4.5" maxSpeed="7.806649026995157" /><vType id="vType_car_1.9938000009240748" accel="1.0" decel="5.0" sigma="0.0" length="4.5" maxSpeed="0.5538333335900207" /><vType id="vType_car_51.2665735120236" accel="1.0" decel="5.0" sigma="0.0" length="4.5" maxSpeed="14.240714864450998" /><vType id="vType_car_14.246559524283706" accel="1.0" decel="5.0" sigma="0.0" length="4.5" maxSpeed="3.9573776456343626" /><vType id="vType_car_31.35279149115643" accel="1.0" decel="5.0" sigma="0.0" length="4.5" maxSpeed="8.709108747543453" /><vType id="vType_car_8.98616056003522" accel="1.0" decel="5.0" sigma="0.0" length="4.5" maxSpeed="2.4961557111208945" /><vType id="vType_car_8.433321812816121" accel="1.0" decel="5.0" sigma="0.0" length="4.5" maxSpeed="2.3425893924489225" /><vType id="vType_car_9.283991889094485" accel="1.0" decel="5.0" sigma="0.0" length="4.5" maxSpeed="2.5788866358595794" /><vType id="vType_car_37.78288068686452" accel="1.0" decel="5.0" sigma="0.0" length="4.5" maxSpeed="10.495244635240145" /><vType id="vType_car_32.49573028717545" accel="1.0" decel="5.0" sigma="0.0" length="4.5" maxSpeed="9.026591746437624" /><vType id="vType_car_62.72328183167246" accel="1.0" decel="5.0" sigma="0.0" length="4.5" maxSpeed="17.42313384213124" /><vType id="vType_car_4.984187137961436" accel="1.0" decel="5.0" sigma="0.0" length="4.5" maxSpeed="1.3844964272115101" /><vType id="vType_car_31.447769161566185" accel="1.0" decel="5.0" sigma="0.0" length="4.5" maxSpeed="8.735491433768384" /><vType id="vType_car_38.29949394996932" accel="1.0" decel="5.0" sigma="0.0" length="4.5" maxSpeed="10.638748319435921" /><vType id="vType_car_63.94755913646371" accel="1.0" decel="5.0" sigma="0.0" length="4.5" maxSpeed="17.76321087123992" /><vType id="vType_car_5.2868243239542805" accel="1.0" decel="5.0" sigma="0.0" length="4.5" maxSpeed="1.4685623122095224" /><vType id="vType_car_31.33965276319935" accel="1.0" decel="5.0" sigma="0.0" length="4.5" maxSpeed="8.705459100888708" /><vType id="vType_car_4.631569137205698" accel="1.0" decel="5.0" sigma="0.0" length="4.5" maxSpeed="1.2865469825571383" /><vType id="vType_car_32.089271783025204" accel="1.0" decel="5.0" sigma="0.0" length="4.5" maxSpeed="8.91368660639589" /><vType id="vType_car_8.164719963009436" accel="1.0" decel="5.0" sigma="0.0" length="4.5" maxSpeed="2.267977767502621" /><vType id="vType_car_41.6018990529998" accel="1.0" decel="5.0" sigma="0.0" length="4.5" maxSpeed="11.55608307027772" /><vType id="vType_car_16.540123155366064" accel="1.0" decel="5.0" sigma="0.0" length="4.5" maxSpeed="4.594478654268351" /><vType id="vType_car_4.407347370463744" accel="1.0" decel="5.0" sigma="0.0" length="4.5" maxSpeed="1.224263158462151" /><vType id="vType_car_16.309150649281662" accel="1.0" decel="5.0" sigma="0.0" length="4.5" maxSpeed="4.530319624800462" /><vType id="vType_car_23.225265613005483" accel="1.0" decel="5.0" sigma="0.0" length="4.5" maxSpeed="6.451462670279301" /><vType id="vType_car_5.342511793199336" accel="1.0" decel="5.0" sigma="0.0" length="4.5" maxSpeed="1.484031053666482" /><vType id="vType_car_30.01537480416341" accel="1.0" decel="5.0" sigma="0.0" length="4.5" maxSpeed="8.337604112267615" /><vType id="vType_car_23.513405110371814" accel="1.0" decel="5.0" sigma="0.0" length="4.5" maxSpeed="6.531501419547726" /><vType id="vType_car_24.338213318341104" accel="1.0" decel="5.0" sigma="0.0" length="4.5" maxSpeed="6.760614810650306" /><vType id="vType_car_16.84899118861669" accel="1.0" decel="5.0" sigma="0.0" length="4.5" maxSpeed="4.680275330171303" /><vType id="vType_car_27.573722297858318" accel="1.0" decel="5.0" sigma="0.0" length="4.5" maxSpeed="7.659367304960644" /><vType id="vType_car_23.443769103753795" accel="1.0" decel="5.0" sigma="0.0" length="4.5" maxSpeed="6.512158084376054" /><vType id="vType_car_24.915489976061654" accel="1.0" decel="5.0" sigma="0.0" length="4.5" maxSpeed="6.920969437794904" /><vType id="vType_car_2.455522106401229" accel="1.0" decel="5.0" sigma="0.0" length="4.5" maxSpeed="0.6820894740003414" /><vType id="vType_car_22.349964632110474" accel="1.0" decel="5.0" sigma="0.0" length="4.5" maxSpeed="6.208323508919576" /><vType id="vType_car_17.310553677240183" accel="1.0" decel="5.0" sigma="0.0" length="4.5" maxSpeed="4.808487132566717" /><vType id="vType_car_14.679568458288577" accel="1.0" decel="5.0" sigma="0.0" length="4.5" maxSpeed="4.0776579050801605" /><vType id="vType_car_31.263986417680744" accel="1.0" decel="5.0" sigma="0.0" length="4.5" maxSpeed="8.684440671577985" /><vType id="vType_car_16.062720505599316" accel="1.0" decel="5.0" sigma="0.0" length="4.5" maxSpeed="4.461866807110921" /><vType id="vType_car_30.345225596482294" accel="1.0" decel="5.0" sigma="0.0" length="4.5" maxSpeed="8.429229332356192" /><vType id="vType_car_9.546048582946199" accel="1.0" decel="5.0" sigma="0.0" length="4.5" maxSpeed="2.6516801619294994" /><vType id="vType_car_3.0921407658433715" accel="1.0" decel="5.0" sigma="0.0" length="4.5" maxSpeed="0.8589279905120476" /><vType id="vType_car_2.232087510612424" accel="1.0" decel="5.0" sigma="0.0" length="4.5" maxSpeed="0.620024308503451" /><vType id="vType_car_31.888780757575386" accel="1.0" decel="5.0" sigma="0.0" length="4.5" maxSpeed="8.857994654882052" /><vType id="vType_car_15.637245170247047" accel="1.0" decel="5.0" sigma="0.0" length="4.5" maxSpeed="4.343679213957513" /><vType id="vType_car_9.513347987564222" accel="1.0" decel="5.0" sigma="0.0" length="4.5" maxSpeed="2.642596663212284" /><vType id="vType_car_21.718919128335656" accel="1.0" decel="5.0" sigma="0.0" length="4.5" maxSpeed="6.033033091204349" /><vType id="vType_car_17.760328064455948" accel="1.0" decel="5.0" sigma="0.0" length="4.5" maxSpeed="4.933424462348874" /><vType id="vType_car_3.399953685786317" accel="1.0" decel="5.0" sigma="0.0" length="4.5" maxSpeed="0.944431579385088" /><vType id="vType_car_18.397912765720985" accel="1.0" decel="5.0" sigma="0.0" length="4.5" maxSpeed="5.110531323811385" /><vType id="vType_car_28.31945816787788" accel="1.0" decel="5.0" sigma="0.0" length="4.5" maxSpeed="7.866516157743855" /><vType id="vType_car_19.506796854019104" accel="1.0" decel="5.0" sigma="0.0" length="4.5" maxSpeed="5.418554681671973" /><vType id="vType_car_24.94058006634947" accel="1.0" decel="5.0" sigma="0.0" length="4.5" maxSpeed="6.927938907319296" /><vType id="vType_car_18.83111373640152" accel="1.0" decel="5.0" sigma="0.0" length="4.5" maxSpeed="5.2308649267781995" /><vType id="vType_car_3.3709010749152544" accel="1.0" decel="5.0" sigma="0.0" length="4.5" maxSpeed="0.9363614096986818" /><vType id="vType_car_16.791427179190443" accel="1.0" decel="5.0" sigma="0.0" length="4.5" maxSpeed="4.664285327552901" /><vType id="vType_car_21.655013345389612" accel="1.0" decel="5.0" sigma="0.0" length="4.5" maxSpeed="6.015281484830448" /><vType id="vType_car_20.51160574991815" accel="1.0" decel="5.0" sigma="0.0" length="4.5" maxSpeed="5.697668263866153" /><vType id="vType_car_15.742304706382669" accel="1.0" decel="5.0" sigma="0.0" length="4.5" maxSpeed="4.37286241843963" /><vType id="vType_car_3.7777263175403517" accel="1.0" decel="5.0" sigma="0.0" length="4.5" maxSpeed="1.0493684215389865" /><vType id="vType_car_18.3912572114954" accel="1.0" decel="5.0" sigma="0.0" length="4.5" maxSpeed="5.108682558748722" /><vType id="vType_car_18.98742904337497" accel="1.0" decel="5.0" sigma="0.0" length="4.5" maxSpeed="5.274285845381936" /><vType id="vType_car_19.977507238386313" accel="1.0" decel="5.0" sigma="0.0" length="4.5" maxSpeed="5.54930756621842" /><vType id="vType_car_16.636229737695" accel="1.0" decel="5.0" sigma="0.0" length="4.5" maxSpeed="4.6211749271375" /><vType id="vType_car_4.809177530074163" accel="1.0" decel="5.0" sigma="0.0" length="4.5" maxSpeed="1.3358826472428231" /><vType id="vType_car_7.191180890920367" accel="1.0" decel="5.0" sigma="0.0" length="4.5" maxSpeed="1.9975502474778797" /><vType id="vType_car_3.875814174878827" accel="1.0" decel="5.0" sigma="0.0" length="4.5" maxSpeed="1.076615048577452" /><vType id="vType_car_21.184573920308726" accel="1.0" decel="5.0" sigma="0.0" length="4.5" maxSpeed="5.884603866752424" /><vType id="vType_car_16.357549041302146" accel="1.0" decel="5.0" sigma="0.0" length="4.5" maxSpeed="4.5437636225839295" /><vType id="vType_car_20.805873043696877" accel="1.0" decel="5.0" sigma="0.0" length="4.5" maxSpeed="5.779409178804688" /><vType id="vType_car_28.132613440338567" accel="1.0" decel="5.0" sigma="0.0" length="4.5" maxSpeed="7.81461484453849" /><vType id="vType_car_10.866145044270404" accel="1.0" decel="5.0" sigma="0.0" length="4.5" maxSpeed="3.0183736234084453" /><vType id="vType_car_24.328649999618065" accel="1.0" decel="5.0" sigma="0.0" length="4.5" maxSpeed="6.75795833322724" /><vType id="vType_car_26.06297149779566" accel="1.0" decel="5.0" sigma="0.0" length="4.5" maxSpeed="7.239714304943239" /><vType id="vType_car_3.1329701431524555" accel="1.0" decel="5.0" sigma="0.0" length="4.5" maxSpeed="0.8702694842090154" /><vType id="vType_car_28.911162991262955" accel="1.0" decel="5.0" sigma="0.0" length="4.5" maxSpeed="8.030878608684153" /><vType id="vType_car_17.852226515155333" accel="1.0" decel="5.0" sigma="0.0" length="4.5" maxSpeed="4.95895180976537" /><vType id="vType_car_19.235558021862346" accel="1.0" decel="5.0" sigma="0.0" length="4.5" maxSpeed="5.343210561628429" /><vType id="vType_car_3.2179935749674513" accel="1.0" decel="5.0" sigma="0.0" length="4.5" maxSpeed="0.8938871041576253" /><vType id="vType_car_6.21443902147621" accel="1.0" decel="5.0" sigma="0.0" length="4.5" maxSpeed="1.7262330615211694" /><vType id="vType_car_19.887677395432263" accel="1.0" decel="5.0" sigma="0.0" length="4.5" maxSpeed="5.5243548320645175" /><vType id="vType_car_27.356164976730643" accel="1.0" decel="5.0" sigma="0.0" length="4.5" maxSpeed="7.598934715758512" /><vType id="vType_car_42.74116099907393" accel="1.0" decel="5.0" sigma="0.0" length="4.5" maxSpeed="11.87254472196498" /><vType id="vType_car_19.79547583032293" accel="1.0" decel="5.0" sigma="0.0" length="4.5" maxSpeed="5.498743286200813" /><vType id="vType_car_4.2954359345697695" accel="1.0" decel="5.0" sigma="0.0" length="4.5" maxSpeed="1.1931766484916027" /><vType id="vType_truck_47.41218477129404" accel="1.0" decel="5.0" sigma="0.0" length="8" maxSpeed="13.170051325359454" /><vType id="vType_car_3.579958939778019" accel="1.0" decel="5.0" sigma="0.0" length="4.5" maxSpeed="0.9944330388272274" /><vType id="vType_car_21.177001601780823" accel="1.0" decel="5.0" sigma="0.0" length="4.5" maxSpeed="5.882500444939118" /><vType id="vType_car_25.744015808933106" accel="1.0" decel="5.0" sigma="0.0" length="4.5" maxSpeed="7.151115502481418" /><vType id="vType_car_26.764145397190727" accel="1.0" decel="5.0" sigma="0.0" length="4.5" maxSpeed="7.43448483255298" /><vType id="vType_car_27.922534129344736" accel="1.0" decel="5.0" sigma="0.0" length="4.5" maxSpeed="7.756259480373537" /><vType id="vType_car_31.402138275887484" accel="1.0" decel="5.0" sigma="0.0" length="4.5" maxSpeed="8.722816187746524" /><vType id="vType_car_5.333252588918192" accel="1.0" decel="5.0" sigma="0.0" length="4.5" maxSpeed="1.4814590524772757" /><vType id="vType_car_8.485344227806577" accel="1.0" decel="5.0" sigma="0.0" length="4.5" maxSpeed="2.3570400632796047" /><vType id="vType_car_3.8505589027706617" accel="1.0" decel="5.0" sigma="0.0" length="4.5" maxSpeed="1.0695996952140727" /><vType id="vType_car_19.625204072580637" accel="1.0" decel="5.0" sigma="0.0" length="4.5" maxSpeed="5.451445575716844" /><vType id="vType_car_22.29503540387215" accel="1.0" decel="5.0" sigma="0.0" length="4.5" maxSpeed="6.193065389964485" /><vType id="vType_car_16.319041697243847" accel="1.0" decel="5.0" sigma="0.0" length="4.5" maxSpeed="4.5330671381232905" /><vType id="vType_car_4.001267099777349" accel="1.0" decel="5.0" sigma="0.0" length="4.5" maxSpeed="1.111463083271486" /><vType id="vType_car_30.61547457515378" accel="1.0" decel="5.0" sigma="0.0" length="4.5" maxSpeed="8.504298493098272" /><vType id="vType_car_31.78482656421285" accel="1.0" decel="5.0" sigma="0.0" length="4.5" maxSpeed="8.829118490059125" /><vType id="vType_car_18.690414630712272" accel="1.0" decel="5.0" sigma="0.0" length="4.5" maxSpeed="5.19178184186452" /><vType id="vType_car_3.408902843893457" accel="1.0" decel="5.0" sigma="0.0" length="4.5" maxSpeed="0.9469174566370714" /><vType id="vType_car_6.848805659626502" accel="1.0" decel="5.0" sigma="0.0" length="4.5" maxSpeed="1.9024460165629173" /><vType id="vType_car_16.365012193315135" accel="1.0" decel="5.0" sigma="0.0" length="4.5" maxSpeed="4.545836720365315" /><vType id="vType_car_24.612867648658018" accel="1.0" decel="5.0" sigma="0.0" length="4.5" maxSpeed="6.836907680182782" /><vType id="vType_car_7.555452635080704" accel="1.0" decel="5.0" sigma="0.0" length="4.5" maxSpeed="2.0987368430779734" /><vType id="vType_car_24.279946239006037" accel="1.0" decel="5.0" sigma="0.0" length="4.5" maxSpeed="6.74442951083501" /><vType id="vType_car_4.557015318106454" accel="1.0" decel="5.0" sigma="0.0" length="4.5" maxSpeed="1.2658375883629038" /><vType id="vType_car_6.746862313038162" accel="1.0" decel="5.0" sigma="0.0" length="4.5" maxSpeed="1.8741284202883781" /><vType id="vType_car_6.708675906910936" accel="1.0" decel="5.0" sigma="0.0" length="4.5" maxSpeed="1.8635210852530377" /><vType id="vType_car_33.69757189041859" accel="1.0" decel="5.0" sigma="0.0" length="4.5" maxSpeed="9.360436636227385" /><vType id="vType_car_69.31378607507371" accel="1.0" decel="5.0" sigma="0.0" length="4.5" maxSpeed="19.253829465298253" /><vType id="vType_car_35.11716429683513" accel="1.0" decel="5.0" sigma="0.0" length="4.5" maxSpeed="9.75476786023198" /><vType id="vType_car_7.095670154302321" accel="1.0" decel="5.0" sigma="0.0" length="4.5" maxSpeed="1.9710194873062004" /><vType id="vType_car_42.13601469766355" accel="1.0" decel="5.0" sigma="0.0" length="4.5" maxSpeed="11.704448527128763" /><vType id="vType_car_3.357003538406551" accel="1.0" decel="5.0" sigma="0.0" length="4.5" maxSpeed="0.9325009828907086" /><vType id="vType_car_21.53605343189504" accel="1.0" decel="5.0" sigma="0.0" length="4.5" maxSpeed="5.98223706441529" /><vType id="vType_car_26.31892382178735" accel="1.0" decel="5.0" sigma="0.0" length="4.5" maxSpeed="7.310812172718708" /><vType id="vType_car_3.715954404771418" accel="1.0" decel="5.0" sigma="0.0" length="4.5" maxSpeed="1.0322095568809495" /><vType id="vType_car_30.120852899556816" accel="1.0" decel="5.0" sigma="0.0" length="4.5" maxSpeed="8.366903583210226" /><vType id="vType_car_4.527346561241057" accel="1.0" decel="5.0" sigma="0.0" length="4.5" maxSpeed="1.2575962670114047" /><vType id="vType_car_3.3842232563972985" accel="1.0" decel="5.0" sigma="0.0" length="4.5" maxSpeed="0.9400620156659162" /><vType id="vType_car_1.8161047923415328" accel="1.0" decel="5.0" sigma="0.0" length="4.5" maxSpeed="0.5044735534282035" /><vType id="vType_car_6.209932838615879" accel="1.0" decel="5.0" sigma="0.0" length="4.5" maxSpeed="1.7249813440599664" /><vType id="vType_car_21.517511337152623" accel="1.0" decel="5.0" sigma="0.0" length="4.5" maxSpeed="5.977086482542395" /><vType id="vType_car_26.062968264057368" accel="1.0" decel="5.0" sigma="0.0" length="4.5" maxSpeed="7.239713406682602" /><vType id="vType_car_25.934534406107495" accel="1.0" decel="5.0" sigma="0.0" length="4.5" maxSpeed="7.204037335029859" /><vType id="vType_car_27.908476372692387" accel="1.0" decel="5.0" sigma="0.0" length="4.5" maxSpeed="7.752354547970107" /><vType id="vType_car_43.894861310270365" accel="1.0" decel="5.0" sigma="0.0" length="4.5" maxSpeed="12.193017030630656" /><vType id="vType_car_16.167919145334498" accel="1.0" decel="5.0" sigma="0.0" length="4.5" maxSpeed="4.491088651481805" /><vType id="vType_car_17.83068419177335" accel="1.0" decel="5.0" sigma="0.0" length="4.5" maxSpeed="4.952967831048153" /><vType id="vType_car_50.4418561826474" accel="1.0" decel="5.0" sigma="0.0" length="4.5" maxSpeed="14.011626717402056" /><vType id="vType_car_34.310373115648204" accel="1.0" decel="5.0" sigma="0.0" length="4.5" maxSpeed="9.530659198791168" /><vType id="vType_car_30.99193190220245" accel="1.0" decel="5.0" sigma="0.0" length="4.5" maxSpeed="8.608869972834013" /><vType id="vType_car_65.78884107333221" accel="1.0" decel="5.0" sigma="0.0" length="4.5" maxSpeed="18.274678075925614" /><vType id="vType_car_73.35999226810803" accel="1.0" decel="5.0" sigma="0.0" length="4.5" maxSpeed="20.37777563003001" /><vType id="vType_car_38.58781632040554" accel="1.0" decel="5.0" sigma="0.0" length="4.5" maxSpeed="10.718837866779316" /><vType id="vType_car_64.12705328335488" accel="1.0" decel="5.0" sigma="0.0" length="4.5" maxSpeed="17.81307035648747" /><vType id="vType_car_62.42797661220348" accel="1.0" decel="5.0" sigma="0.0" length="4.5" maxSpeed="17.341104614500967" /><vType id="vType_car_4.481501143715834" accel="1.0" decel="5.0" sigma="0.0" length="4.5" maxSpeed="1.2448614288099538" /><vType id="vType_car_68.21604063961145" accel="1.0" decel="5.0" sigma="0.0" length="4.5" maxSpeed="18.948900177669845" /><vType id="vType_car_5.731996639086713" accel="1.0" decel="5.0" sigma="0.0" length="4.5" maxSpeed="1.592221288635198" /><vType id="vType_car_15.255432496700315" accel="1.0" decel="5.0" sigma="0.0" length="4.5" maxSpeed="4.23762013797231" /><vType id="vType_car_3.445315016736598" accel="1.0" decel="5.0" sigma="0.0" length="4.5" maxSpeed="0.9570319490934993" /><vType id="vType_car_30.379602139586186" accel="1.0" decel="5.0" sigma="0.0" length="4.5" maxSpeed="8.438778372107274" /><vType id="vType_car_15.86613181206347" accel="1.0" decel="5.0" sigma="0.0" length="4.5" maxSpeed="4.4072588366842975" /><vType id="vType_car_25.794898780413927" accel="1.0" decel="5.0" sigma="0.0" length="4.5" maxSpeed="7.165249661226091" /><vType id="vType_car_6.29270226140576" accel="1.0" decel="5.0" sigma="0.0" length="4.5" maxSpeed="1.747972850390489" /><vType id="vType_car_10.556106736863182" accel="1.0" decel="5.0" sigma="0.0" length="4.5" maxSpeed="2.932251871350884" /><vType id="vType_car_18.387492596368578" accel="1.0" decel="5.0" sigma="0.0" length="4.5" maxSpeed="5.107636832324605" /><vType id="vType_car_7.079034547263265" accel="1.0" decel="5.0" sigma="0.0" length="4.5" maxSpeed="1.9663984853509069" /><vType id="vType_car_3.9663969625739877" accel="1.0" decel="5.0" sigma="0.0" length="4.5" maxSpeed="1.1017769340483299" /><vType id="vType_car_27.46943775566433" accel="1.0" decel="5.0" sigma="0.0" length="4.5" maxSpeed="7.630399376573425" /><vType id="vType_car_16.96832585707608" accel="1.0" decel="5.0" sigma="0.0" length="4.5" maxSpeed="4.713423849187801" /><vType id="vType_car_28.890016262010437" accel="1.0" decel="5.0" sigma="0.0" length="4.5" maxSpeed="8.02500451722512" /><vType id="vType_car_17.87595517578592" accel="1.0" decel="5.0" sigma="0.0" length="4.5" maxSpeed="4.965543104384977" /><vType id="vType_car_24.036446776849935" accel="1.0" decel="5.0" sigma="0.0" length="4.5" maxSpeed="6.676790771347204" /><vType id="vType_car_11.224631220568705" accel="1.0" decel="5.0" sigma="0.0" length="4.5" maxSpeed="3.11795311682464" /><vType id="vType_car_32.024638821208775" accel="1.0" decel="5.0" sigma="0.0" length="4.5" maxSpeed="8.895733005891326" /><vType id="vType_car_26.659656705712983" accel="1.0" decel="5.0" sigma="0.0" length="4.5" maxSpeed="7.405460196031384" /><vType id="vType_car_18.28678977256698" accel="1.0" decel="5.0" sigma="0.0" length="4.5" maxSpeed="5.07966382571305" /><vType id="vType_car_34.2127696942838" accel="1.0" decel="5.0" sigma="0.0" length="4.5" maxSpeed="9.503547137301055" /><vType id="vType_car_13.802222497536404" accel="1.0" decel="5.0" sigma="0.0" length="4.5" maxSpeed="3.833950693760112" /><vType id="vType_car_13.870385173947216" accel="1.0" decel="5.0" sigma="0.0" length="4.5" maxSpeed="3.8528847705408933" /><vType id="vType_car_30.590764672558418" accel="1.0" decel="5.0" sigma="0.0" length="4.5" maxSpeed="8.497434631266227" /><vType id="vType_car_16.969981079705867" accel="1.0" decel="5.0" sigma="0.0" length="4.5" maxSpeed="4.71388363325163" /><vType id="vType_car_31.96809163929512" accel="1.0" decel="5.0" sigma="0.0" length="4.5" maxSpeed="8.880025455359755" /><vType id="vType_car_17.061686558118733" accel="1.0" decel="5.0" sigma="0.0" length="4.5" maxSpeed="4.739357377255204" /><vType id="vType_car_20.118582209083947" accel="1.0" decel="5.0" sigma="0.0" length="4.5" maxSpeed="5.588495058078874" /><vType id="vType_car_18.761124770835703" accel="1.0" decel="5.0" sigma="0.0" length="4.5" maxSpeed="5.211423547454362" /><vType id="vType_car_17.72232587931921" accel="1.0" decel="5.0" sigma="0.0" length="4.5" maxSpeed="4.922868299810892" /><vType id="vType_car_25.88758126163781" accel="1.0" decel="5.0" sigma="0.0" length="4.5" maxSpeed="7.1909947948993915" /><vType id="vType_car_29.536405915963165" accel="1.0" decel="5.0" sigma="0.0" length="4.5" maxSpeed="8.204557198878657" /><vType id="vType_car_17.65105333686696" accel="1.0" decel="5.0" sigma="0.0" length="4.5" maxSpeed="4.903070371351933" /><vType id="vType_car_18.360158042488433" accel="1.0" decel="5.0" sigma="0.0" length="4.5" maxSpeed="5.100043900691231" /><vType id="vType_car_20.334250308438957" accel="1.0" decel="5.0" sigma="0.0" length="4.5" maxSpeed="5.648402863455265" /><vType id="vType_car_12.077156454834693" accel="1.0" decel="5.0" sigma="0.0" length="4.5" maxSpeed="3.3547656818985256" /><vType id="vType_car_22.46840908743305" accel="1.0" decel="5.0" sigma="0.0" length="4.5" maxSpeed="6.24122474650918" /><vType id="vType_car_17.741267581629394" accel="1.0" decel="5.0" sigma="0.0" length="4.5" maxSpeed="4.928129883785942" /><vType id="vType_car_3.881165459702225" accel="1.0" decel="5.0" sigma="0.0" length="4.5" maxSpeed="1.0781015165839514" /><vType id="vType_car_20.74099813884307" accel="1.0" decel="5.0" sigma="0.0" length="4.5" maxSpeed="5.761388371900853" /><vType id="vType_car_4.718109330151931" accel="1.0" decel="5.0" sigma="0.0" length="4.5" maxSpeed="1.310585925042203" /><vType id="vType_car_18.129072673825576" accel="1.0" decel="5.0" sigma="0.0" length="4.5" maxSpeed="5.035853520507104" /><vType id="vType_car_14.790469498662267" accel="1.0" decel="5.0" sigma="0.0" length="4.5" maxSpeed="4.108463749628408" /><vType id="vType_car_4.398538371239514" accel="1.0" decel="5.0" sigma="0.0" length="4.5" maxSpeed="1.2218162142331983" /><vType id="vType_car_3.50528955088956" accel="1.0" decel="5.0" sigma="0.0" length="4.5" maxSpeed="0.9736915419137666" /><vType id="vType_car_4.439449652140409" accel="1.0" decel="5.0" sigma="0.0" length="4.5" maxSpeed="1.2331804589278914" /><vType id="vType_car_16.15873694409671" accel="1.0" decel="5.0" sigma="0.0" length="4.5" maxSpeed="4.488538040026864" /><vType id="vType_car_27.360564648861153" accel="1.0" decel="5.0" sigma="0.0" length="4.5" maxSpeed="7.600156846905875" /><vType id="vType_car_21.572439443142937" accel="1.0" decel="5.0" sigma="0.0" length="4.5" maxSpeed="5.992344289761927" /><vType id="vType_car_5.405194675808221" accel="1.0" decel="5.0" sigma="0.0" length="4.5" maxSpeed="1.5014429655022834" /><vType id="vType_car_15.777468776377418" accel="1.0" decel="5.0" sigma="0.0" length="4.5" maxSpeed="4.382630215660394" /><vType id="vType_car_0.6868593304618822" accel="1.0" decel="5.0" sigma="0.0" length="4.5" maxSpeed="0.19079425846163395" /><vType id="vType_car_24.18174198079493" accel="1.0" decel="5.0" sigma="0.0" length="4.5" maxSpeed="6.717150550220813" /><vType id="vType_car_14.515435555112207" accel="1.0" decel="5.0" sigma="0.0" length="4.5" maxSpeed="4.032065431975613" /><vType id="vType_car_22.64135508823506" accel="1.0" decel="5.0" sigma="0.0" length="4.5" maxSpeed="6.289265302287516" /><vType id="vType_car_4.095768855541375" accel="1.0" decel="5.0" sigma="0.0" length="4.5" maxSpeed="1.1377135709837154" /><vType id="vType_car_12.285562336846422" accel="1.0" decel="5.0" sigma="0.0" length="4.5" maxSpeed="3.4126562046795614" /><vType id="vType_car_28.633549088720184" accel="1.0" decel="5.0" sigma="0.0" length="4.5" maxSpeed="7.953763635755607" /><vType id="vType_car_4.836260432625404" accel="1.0" decel="5.0" sigma="0.0" length="4.5" maxSpeed="1.343405675729279" /><vType id="vType_car_4.193303372474235" accel="1.0" decel="5.0" sigma="0.0" length="4.5" maxSpeed="1.164806492353954" /><vType id="vType_car_25.469344023283327" accel="1.0" decel="5.0" sigma="0.0" length="4.5" maxSpeed="7.074817784245369" /><vType id="vType_car_3.575583523249102" accel="1.0" decel="5.0" sigma="0.0" length="4.5" maxSpeed="0.9932176453469727" /><vType id="vType_car_17.70288374040618" accel="1.0" decel="5.0" sigma="0.0" length="4.5" maxSpeed="4.917467705668383" /><vType id="vType_car_23.693906538005393" accel="1.0" decel="5.0" sigma="0.0" length="4.5" maxSpeed="6.581640705001498" /><vType id="vType_car_22.5334638254853" accel="1.0" decel="5.0" sigma="0.0" length="4.5" maxSpeed="6.2592955070792495" /><vType id="vType_car_28.592914087124022" accel="1.0" decel="5.0" sigma="0.0" length="4.5" maxSpeed="7.942476135312228" /><vType id="vType_car_8.16222780182302" accel="1.0" decel="5.0" sigma="0.0" length="4.5" maxSpeed="2.2672855005063943" /><vType id="vType_truck_18.299241462613672" accel="1.0" decel="5.0" sigma="0.0" length="8" maxSpeed="5.083122628503798" /><vType id="vType_car_20.248947866084684" accel="1.0" decel="5.0" sigma="0.0" length="4.5" maxSpeed="5.624707740579079" /><vType id="vType_car_21.35115141058419" accel="1.0" decel="5.0" sigma="0.0" length="4.5" maxSpeed="5.930875391828942" /><vType id="vType_car_20.836804291855756" accel="1.0" decel="5.0" sigma="0.0" length="4.5" maxSpeed="5.788001192182154" /><vType id="vType_car_14.673778922196243" accel="1.0" decel="5.0" sigma="0.0" length="4.5" maxSpeed="4.076049700610067" /><vType id="vType_car_26.685040090522566" accel="1.0" decel="5.0" sigma="0.0" length="4.5" maxSpeed="7.412511136256268" /><vType id="vType_car_16.008228832038583" accel="1.0" decel="5.0" sigma="0.0" length="4.5" maxSpeed="4.446730231121829" /><vType id="vType_truck_18.927914821444425" accel="1.0" decel="5.0" sigma="0.0" length="8" maxSpeed="5.257754117067896" /><vType id="vType_car_3.576549877369318" accel="1.0" decel="5.0" sigma="0.0" length="4.5" maxSpeed="0.9934860770470327" /><vType id="vType_car_7.211654625355821" accel="1.0" decel="5.0" sigma="0.0" length="4.5" maxSpeed="2.0032373959321723" /><vType id="vType_car_4.385782885677614" accel="1.0" decel="5.0" sigma="0.0" length="4.5" maxSpeed="1.218273023799337" /><vType id="vType_car_4.2844062125814455" accel="1.0" decel="5.0" sigma="0.0" length="4.5" maxSpeed="1.1901128368281793" /><vType id="vType_car_5.444979739236814" accel="1.0" decel="5.0" sigma="0.0" length="4.5" maxSpeed="1.512494372010226" /><vType id="vType_car_4.685265128881641" accel="1.0" decel="5.0" sigma="0.0" length="4.5" maxSpeed="1.3014625358004557" /><vType id="vType_car_4.72215789692544" accel="1.0" decel="5.0" sigma="0.0" length="4.5" maxSpeed="1.3117105269237332" /><route id="route_north_to_east" edges="north_to_center center_to_east" /><route id="route_north_to_south" edges="north_to_center center_to_south" /><route id="route_north_to_west" edges="north_to_center center_to_west" /><route id="route_east_to_west" edges="east_to_center center_to_west" /><route id="route_east_to_south" edges="east_to_center center_to_south" /><route id="route_east_to_north" edges="east_to_center center_to_north" /><route id="route_south_to_west" edges="south_to_center center_to_west" /><route id="route_south_to_north" edges="south_to_center center_to_north" /><route id="route_south_to_east" edges="south_to_center center_to_east" /><route id="route_west_to_south" edges="west_to_center center_to_south" /><route id="