<?xml version='1.0' encoding='utf-8'?>
<routes><vType id="vType_car_29.75473649769024" accel="1.0" decel="5.0" sigma="0.0" length="4.5" maxSpeed="8.265204582691732" /><vType id="vType_car_18.81977748969766" accel="1.0" decel="5.0" sigma="0.0" length="4.5" maxSpeed="5.227715969360461" /><vType id="vType_car_4.424288018664317" accel="1.0" decel="5.0" sigma="0.0" length="4.5" maxSpeed="1.2289688940734214" /><vType id="vType_car_4.199062723759782" accel="1.0" decel="5.0" sigma="0.0" length="4.5" maxSpeed="1.166406312155495" /><vType id="vType_car_4.637389798170479" accel="1.0" decel="5.0" sigma="0.0" length="4.5" maxSpeed="1.288163832825133" /><vType id="vType_car_24.456185322730285" accel="1.0" decel="5.0" sigma="0.0" length="4.5" maxSpeed="6.793384811869523" /><vType id="vType_car_2.623421053847467" accel="1.0" decel="5.0" sigma="0.0" length="4.5" maxSpeed="0.7287280705131852" /><vType id="vType_car_15.068002943291281" accel="1.0" decel="5.0" sigma="0.0" length="4.5" maxSpeed="4.185556373136467" /><vType id="vType_car_25.79517290725698" accel="1.0" decel="5.0" sigma="0.0" length="4.5" maxSpeed="7.165325807571383" /><vType id="vType_car_20.376110721851767" accel="1.0" decel="5.0" sigma="0.0" length="4.5" maxSpeed="5.660030756069935" /><vType id="vType_car_19.196417935430176" accel="1.0" decel="5.0" sigma="0.0" length="4.5" maxSpeed="5.332338315397271" /><vType id="vType_car_3.3951024804372225" accel="1.0" decel="5.0" sigma="0.0" length="4.5" maxSpeed="0.943084022343673" /><vType id="vType_car_13.322995318431222" accel="1.0" decel="5.0" sigma="0.0" length="4.5" maxSpeed="3.7008320328975612" /><vType id="vType_car_25.849673253584132" accel="1.0" decel="5.0" sigma="0.0" length="4.5" maxSpeed="7.180464792662259" /><vType id="vType_car_18.292039920729547" accel="1.0" decel="5.0" sigma="0.0" length="4.5" maxSpeed="5.0811222002026515" /><vType id="vType_car_21.477750897766644" accel="1.0" decel="5.0" sigma="0.0" length="4.5" maxSpeed="5.96604191604629" /><vType id="vType_car_15.918340067214295" accel="1.0" decel="5.0" sigma="0.0" length="4.5" maxSpeed="4.421761129781749" /><vType id="vType_car_28.112180307839395" accel="1.0" decel="5.0" sigma="0.0" length="4.5" maxSpeed="7.808938974399831" /><vType id="vType_car_17.10850820598365" accel="1.0" decel="5.0" sigma="0.0" length="4.5" maxSpeed="4.752363390551014" /><vType id="vType_car_19.29672177231751" accel="1.0" decel="5.0" sigma="0.0" length="4.5" maxSpeed="5.36020049231042" /><vType id="vType_car_17.467375718585956" accel="1.0" decel="5.0" sigma="0.0" length="4.5" maxSpeed="4.852048810718321" /><vType id="vType_car_17.12521224421776" accel="1.0" decel="5.0" sigma="0.0" length="4.5" maxSpeed="4.7570034011716" /><vType id="vType_car_21.263650305231256" accel="1.0" decel="5.0" sigma="0.0" length="4.5" maxSpeed="5.906569529230905" /><vType id="vType_car_30.90310979250521" accel="1.0" decel="5.0" sigma="0.0" length="4.5" maxSpeed="8.58419716458478" /><vType id="vType_car_14.59042480291188" accel="1.0" decel="5.0" sigma="0.0" length="4.5" maxSpeed="4.052895778586633" /><vType id="vType_car_16.025168558858084" accel="1.0" decel="5.0" sigma="0.0" length="4.5" maxSpeed="4.451435710793912" /><vType id="vType_car_18.34780509956491" accel="1.0" decel="5.0" sigma="0.0" length="4.5" maxSpeed="5.0966125276569185" /><vType id="vType_car_15.922530325869179" accel="1.0" decel="5.0" sigma="0.0" length="4.5" maxSpeed="4.422925090519216" /><vType id="vType_car_16.16970279787948" accel="1.0" decel="5.0" sigma="0.0" length="4.5" maxSpeed="4.491584110522078" /><vType id="vType_car_27.134354142017294" accel="1.0" decel="5.0" sigma="0.0" length="4.5" maxSpeed="7.537320595004804" /><vType id="vType_car_7.6868476615837" accel="1.0" decel="5.0" sigma="0.0" length="4.5" maxSpeed="2.135235461551028" /><vType id="vType_car_20.77994032474344" accel="1.0" decel="5.0" sigma="0.0" length="4.5" maxSpeed="5.7722056457620665" /><vType id="vType_car_16.41311257950863" accel="1.0" decel="5.0" sigma="0.0" length="4.5" maxSpeed="4.559197938752398" /><vType id="vType_car_20.754986905508158" accel="1.0" decel="5.0" sigma="0.0" length="4.5" maxSpeed="5.765274140418932" /><vType id="vType_car_21.394078979393488" accel="1.0" decel="5.0" sigma="0.0" length="4.5" maxSpeed="5.9427997164981905" /><vType id="vType_car_16.84949308734069" accel="1.0" decel="5.0" sigma="0.0" length="4.5" maxSpeed="4.680414746483525" /><vType id="vType_car_3.0451007484055608" accel="1.0" decel="5.0" sigma="0.0" length="4.5" maxSpeed="0.8458613190015446" /><vType id="vType_car_21.061270401637557" accel="1.0" decel="5.0" sigma="0.0" length="4.5" maxSpeed="5.850352889343766" /><vType id="vType_car_15.876718327608142" accel="1.0" decel="5.0" sigma="0.0" length="4.5" maxSpeed="4.410199535446706" /><vType id="vType_car_16.608636955645157" accel="1.0" decel="5.0" sigma="0.0" length="4.5" maxSpeed="4.613510265456988" /><vType id="vType_car_28.139419466630464" accel="1.0" decel="5.0" sigma="0.0" length="4.5" maxSpeed="7.816505407397351" /><vType id="vType_car_21.219660750041818" accel="1.0" decel="5.0" sigma="0.0" length="4.5" maxSpeed="5.8943502083449495" /><vType id="vType_car_8.93145475993739" accel="1.0" decel="5.0" sigma="0.0" length="4.5" maxSpeed="2.4809596555381637" /><vType id="vType_car_18.65265214907141" accel="1.0" decel="5.0" sigma="0.0" length="4.5" maxSpeed="5.181292263630947" /><vType id="vType_car_16.419502256921703" accel="1.0" decel="5.0" sigma="0.0" length="4.5" maxSpeed="4.5609728491449175" /><vType id="vType_car_23.456391118127538" accel="1.0" decel="5.0" sigma="0.0" length="4.5" maxSpeed="6.515664199479872" /><vType id="vType_car_15.882217211416654" accel="1.0" decel="5.0" sigma="0.0" length="4.5" maxSpeed="4.4117270031712925" /><vType id="vType_car_3.4867390774107756" accel="1.0" decel="5.0" sigma="0.0" length="4.5" maxSpeed="0.9685386326141043" /><vType id="vType_car_22.431063209399742" accel="1.0" decel="5.0" sigma="0.0" length="4.5" maxSpeed="6.230850891499928" /><vType id="vType_car_9.725910232022047" accel="1.0" decel="5.0" sigma="0.0" length="4.5" maxSpeed="2.701641731117235" /><vType id="vType_car_30.17583626928623" accel="1.0" decel="5.0" sigma="0.0" length="4.5" maxSpeed="8.382176741468397" /><vType id="vType_car_16.436240405685343" accel="1.0" decel="5.0" sigma="0.0" length="4.5" maxSpeed="4.565622334912595" /><vType id="vType_car_9.653053065738838" accel="1.0" decel="5.0" sigma="0.0" length="4.5" maxSpeed="2.6814036293718995" /><vType id="vType_car_29.68922676349931" accel="1.0" decel="5.0" sigma="0.0" length="4.5" maxSpeed="8.247007434305363" /><vType id="vType_car_4.207774522888559" accel="1.0" decel="5.0" sigma="0.0" length="4.5" maxSpeed="1.168826256357933" /><vType id="vType_car_22.71698186819481" accel="1.0" decel="5.0" sigma="0.0" length="4.5" maxSpeed="6.310272741165225" /><vType id="vType_car_33.97841535269017" accel="1.0" decel="5.0" sigma="0.0" length="4.5" maxSpeed="9.438448709080603" /><vType id="vType_car_5.290014421587904" accel="1.0" decel="5.0" sigma="0.0" length="4.5" maxSpeed="1.4694484504410845" /><vType id="vType_car_15.930759676441276" accel="1.0" decel="5.0" sigma="0.0" length="4.5" maxSpeed="4.425211021233688" /><vType id="vType_car_31.499925500590855" accel="1.0" decel="5.0" sigma="0.0" length="4.5" maxSpeed="8.749979305719682" /><vType id="vType_car_26.497211493554822" accel="1.0" decel="5.0" sigma="0.0" length="4.5" maxSpeed="7.36033652598745" /><vType id="vType_car_21.92811331398718" accel="1.0" decel="5.0" sigma="0.0" length="4.5" maxSpeed="6.091142587218661" /><vType id="vType_car_20.58666862515127" accel="1.0" decel="5.0" sigma="0.0" length="4.5" maxSpeed="5.718519062542019" /><vType id="vType_truck_8.692305881253588" accel="1.0" decel="5.0" sigma="0.0" length="8" maxSpeed="2.41452941145933" /><vType id="vType_car_14.596693225128947" accel="1.0" decel="5.0" sigma="0.0" length="4.5" maxSpeed="4.054637006980263" /><vType id="vType_car_43.06529017067447" accel="1.0" decel="5.0" sigma="0.0" length="4.5" maxSpeed="11.962580602965131" /><vType id="vType_car_7.125172746162336" accel="1.0" decel="5.0" sigma="0.0" length="4.5" maxSpeed="1.9792146517117601" /><vType id="vType_car_3.627375249860996" accel="1.0" decel="5.0" sigma="0.0" length="4.5" maxSpeed="1.0076042360724988" /><vType id="vType_car_31.375449504839604" accel="1.0" decel="5.0" sigma="0.0" length="4.5" maxSpeed="8.715402640233224" /><vType id="vType_car_5.454109551251927" accel="1.0" decel="5.0" sigma="0.0" length="4.5" maxSpeed="1.515030430903313" /><route id="route_north_to_east" edges="north_to_center center_to_east" /><route id="route_north_to_south" edges="north_to_center center_to_south" /><route id="route_north_to_west" edges="north_to_center center_to_west" /><route id="route_east_to_west" edges="east_to_center center_to_west" /><route id="route_east_to_south" edges="east_to_center center_to_south" /><route id="route_east_to_north" edges="east_to_center center_to_north" /><route id="route_south_to_west" edges="south_to_center center_to_west" /><route id="route_south_to_north" edges="south_to_center center_to_north" /><route id="route_south_to_east" edges="south_to_center center_to_east" /><route id="route_west_to_south" edges="west_to_center center_to_south" /><route id="route_west_to_north" edges="west_to_center center_to_north" /><route id="route_west_to_east" edges="west_to_center center_to_east" /><vehicle id="veh792" type="vType_car_29.75473649769024" route="route_north_to_south" depart="0.03" /><vehicle id="veh808" type="vType_car_18.81977748969766" route="route_north_to_east" depart="0.03" /><vehicle id="veh859" type="vType_car_24.456185322730285" route="route_north_to_west" depart="0.47" /><vehicle id="veh861" type="vType_car_15.068002943291281" route="route_north_to_east" depart="1.17" /><vehicle id="veh862" type="vType_car_25.79517290725698" route="route_north_to_south" depart="2.40" /><vehicle id="veh863" type="vType_car_20.376110721851767" route="route_north_to_west" depart="4.14" /><vehicle id="veh864" type="vType_car_19.196417935430176" route="route_north_to_east" depart="4.50" /><vehicle id="veh867" type="vType_car_13.322995318431222" route="route_north_to_east" depart="5.44" /><vehicle id="veh868" type="vType_car_25.849673253584132" route="route_north_to_south" depart="7.14" /><vehicle id="veh870" type="vType_car_18.292039920729547" route="route_north_to_east" depart="9.24" /><vehicle id="veh871" type="vType_car_21.477750897766644" route="route_north_to_west" depart="9.27" /><vehicle id="veh873" type="vType_car_15.918340067214295" route="route_north_to_east" depart="11.24" /><vehicle id="veh874" type="vType_car_28.112180307839395" route="route_north_to_south" depart="11.81" /><vehicle id="veh875" type="vType_car_17.10850820598365" route="route_north_to_east" depart="12.27" /><vehicle id="veh876" type="vType_car_19.29672177231751" route="route_north_to_west" depart="14.18" /><vehicle id="veh877" type="vType_car_17.467375718585956" route="route_north_to_east" depart="15.74" /><vehicle id="veh878" type="vType_car_17.12521224421776" route="route_north_to_east" depart="17.28" /><vehicle id="veh879" type="vType_car_21.263650305231256" route="route_north_to_west" depart="17.31" /><vehicle id="veh880" type="vType_car_30.90310979250521" route="route_north_to_south" depart="18.71" /><vehicle id="veh881" type="vType_car_14.59042480291188" route="route_north_to_east" depart="19.41" /><vehicle id="veh882" type="vType_car_16.025168558858084" route="route_north_to_east" depart="21.81" /><vehicle id="veh883" type="vType_car_18.34780509956491" route="route_north_to_west" depart="22.08" /><vehicle id="veh884" type="vType_car_15.922530325869179" route="route_north_to_east" depart="23.71" /><vehicle id="veh886" type="vType_car_16.16970279787948" route="route_north_to_east" depart="25.68" /><vehicle id="veh887" type="vType_car_27.134354142017294" route="route_north_to_south" depart="26.82" /><vehicle id="veh889" type="vType_car_20.77994032474344" route="route_north_to_west" depart="29.15" /><vehicle id="veh890" type="vType_car_16.41311257950863" route="route_north_to_east" depart="30.05" /><vehicle id="veh893" type="vType_car_20.754986905508158" route="route_north_to_east" depart="30.92" /><vehicle id="veh895" type="vType_car_21.394078979393488" route="route_north_to_west" depart="31.25" /><vehicle id="veh896" type="vType_car_16.84949308734069" route="route_north_to_east" depart="31.25" /><vehicle id="veh899" type="vType_car_21.061270401637557" route="route_north_to_west" depart="32.72" /><vehicle id="veh900" type="vType_car_15.876718327608142" route="route_north_to_east" depart="32.92" /><vehicle id="veh902" type="vType_car_16.608636955645157" route="route_north_to_east" depart="35.49" /><vehicle id="veh903" type="vType_car_28.139419466630464" route="route_north_to_south" depart="36.19" /><vehicle id="veh904" type="vType_car_21.219660750041818" route="route_north_to_west" depart="36.42" /><vehicle id="veh905" type="vType_car_8.93145475993739" route="route_north_to_east" depart="37.06" /><vehicle id="veh908" type="vType_car_18.65265214907141" route="route_north_to_west" depart="39.19" /><vehicle id="veh909" type="vType_car_16.419502256921703" route="route_north_to_east" depart="39.26" /><vehicle id="veh910" type="vType_car_23.456391118127538" route="route_north_to_south" depart="40.42" /><vehicle id="veh911" type="vType_car_15.882217211416654" route="route_north_to_east" depart="42.66" /><vehicle id="veh915" type="vType_car_22.431063209399742" route="route_north_to_west" depart="44.59" /><vehicle id="veh917" type="vType_car_9.725910232022047" route="route_east_to_north" depart="45.36" /><vehicle id="veh918" type="vType_car_30.17583626928623" route="route_north_to_south" depart="45.96" /><vehicle id="veh920" type="vType_car_16.436240405685343" route="route_north_to_east" depart="46.33" /><vehicle id="veh923" type="vType_car_9.653053065738838" route="route_east_to_north" depart="46.63" /><vehicle id="veh925" type="vType_car_29.68922676349931" route="route_north_to_south" depart="47.70" /><vehicle id="veh928" type="vType_car_22.71698186819481" route="route_north_to_west" depart="49.70" /><vehicle id="veh930" type="vType_car_33.97841535269017" route="route_north_to_south" depart="50.56" /><vehicle id="veh932" type="vType_car_15.930759676441276" route="route_south_to_north" depart="52.40" /><vehicle id="veh934" type="vType_car_26.497211493554822" route="route_north_to_south" depart="53.43" /><vehicle id="veh939" type="vType_car_21.92811331398718" route="route_south_to_north" depart="55.23" /><vehicle id="veh940" type="vType_car_20.58666862515127" route="route_south_to_north" depart="55.27" /><vehicle id="veh945" type="vType_car_43.06529017067447" route="route_south_to_north" depart="56.53" /><vehicle id="veh949" type="vType_car_31.375449504839604" route="route_south_to_north" depart="57.60" /></routes>