<?xml version="1.0" encoding="utf-8"?>
<routes>
	<vType id="vType_car_7.818339512849246" accel="1.0" decel="5.0" sigma="0.0" length="4.5" maxSpeed="2.171760975791457" />
	<vType id="vType_car_38.32407011050917" accel="1.0" decel="5.0" sigma="0.0" length="4.5" maxSpeed="10.64557503069699" />
	<vType id="vType_car_45.19261578390563" accel="1.0" decel="5.0" sigma="0.0" length="4.5" maxSpeed="12.55350438441823" />
	<vType id="vType_car_21.379119390586485" accel="1.0" decel="5.0" sigma="0.0" length="4.5" maxSpeed="5.938644275162912" />
	<vType id="vType_car_14.091544993232473" accel="1.0" decel="5.0" sigma="0.0" length="4.5" maxSpeed="3.9143180536756867" />
	<vType id="vType_car_18.359802576744976" accel="1.0" decel="5.0" sigma="0.0" length="4.5" maxSpeed="5.0999451602069374" />
	<vType id="vType_car_42.87654144625664" accel="1.0" decel="5.0" sigma="0.0" length="4.5" maxSpeed="11.910150401737955" />
	<vType id="vType_car_10.035053048065556" accel="1.0" decel="5.0" sigma="0.0" length="4.5" maxSpeed="2.7875147355737657" />
	<vType id="vType_car_24.323754999254867" accel="1.0" decel="5.0" sigma="0.0" length="4.5" maxSpeed="6.756598610904129" />
	<vType id="vType_car_29.570105032843298" accel="1.0" decel="5.0" sigma="0.0" length="4.5" maxSpeed="8.213918064678694" />
	<vType id="vType_car_29.332803094111004" accel="1.0" decel="5.0" sigma="0.0" length="4.5" maxSpeed="8.148000859475278" />
	<vType id="vType_car_36.62778194335254" accel="1.0" decel="5.0" sigma="0.0" length="4.5" maxSpeed="10.174383873153483" />
	<vType id="vType_car_27.43666237828277" accel="1.0" decel="5.0" sigma="0.0" length="4.5" maxSpeed="7.621295105078547" />
	<vType id="vType_car_35.18568253023679" accel="1.0" decel="5.0" sigma="0.0" length="4.5" maxSpeed="9.773800702843552" />
	<vType id="vType_car_26.31609895255614" accel="1.0" decel="5.0" sigma="0.0" length="4.5" maxSpeed="7.3100274868211494" />
	<vType id="vType_car_27.672307525212986" accel="1.0" decel="5.0" sigma="0.0" length="4.5" maxSpeed="7.68675209033694" />
	<vType id="vType_car_8.343976052987202" accel="1.0" decel="5.0" sigma="0.0" length="4.5" maxSpeed="2.317771125829778" />
	<vType id="vType_car_31.911259017732895" accel="1.0" decel="5.0" sigma="0.0" length="4.5" maxSpeed="8.864238616036916" />
	<vType id="vType_car_21.4328572776001" accel="1.0" decel="5.0" sigma="0.0" length="4.5" maxSpeed="5.953571466000027" />
	<vType id="vType_car_29.51885694286569" accel="1.0" decel="5.0" sigma="0.0" length="4.5" maxSpeed="8.199682484129358" />
	<vType id="vType_car_26.687651536568882" accel="1.0" decel="5.0" sigma="0.0" length="4.5" maxSpeed="7.4132365379358" />
	<vType id="vType_car_23.114346320160838" accel="1.0" decel="5.0" sigma="0.0" length="4.5" maxSpeed="6.4206517556002325" />
	<vType id="vType_car_18.31731187763352" accel="1.0" decel="5.0" sigma="0.0" length="4.5" maxSpeed="5.088142188231534" />
	<vType id="vType_car_33.698448309080945" accel="1.0" decel="5.0" sigma="0.0" length="4.5" maxSpeed="9.360680085855817" />
	<vType id="vType_car_30.459368213350224" accel="1.0" decel="5.0" sigma="0.0" length="4.5" maxSpeed="8.460935614819507" />
	<vType id="vType_car_15.732734182683423" accel="1.0" decel="5.0" sigma="0.0" length="4.5" maxSpeed="4.370203939634284" />
	<vType id="vType_car_31.15202725571059" accel="1.0" decel="5.0" sigma="0.0" length="4.5" maxSpeed="8.653340904364052" />
	<vType id="vType_car_10.469883502360267" accel="1.0" decel="5.0" sigma="0.0" length="4.5" maxSpeed="2.9083009728778517" />
    <vType id="vType_car_85.93367047859664" accel="1.0" decel="5.0" sigma="0.0" length="4.5" maxSpeed="23.8704640218324" />
	<vType id="vType_car_12.54711292255971" accel="1.0" decel="5.0" sigma="0.0" length="4.5" maxSpeed="3.485309145155475" />
	<vType id="vType_car_2.633161675478983" accel="1.0" decel="5.0" sigma="0.0" length="4.5" maxSpeed="0.7314337987441619" />
	<vType id="vType_car_16.15898829420272" accel="1.0" decel="5.0" sigma="0.0" length="4.5" maxSpeed="4.488607859500756" />
	<vType id="vType_car_40.34499289665272" accel="1.0" decel="5.0" sigma="0.0" length="4.5" maxSpeed="11.206942471292422" />
	<vType id="vType_car_4.169263905537005" accel="1.0" decel="5.0" sigma="0.0" length="4.5" maxSpeed="1.1581288626491681" />
	<vType id="vType_car_13.569050485111557" accel="1.0" decel="5.0" sigma="0.0" length="4.5" maxSpeed="3.7691806903087657" />
	<vType id="vType_car_13.214728974018056" accel="1.0" decel="5.0" sigma="0.0" length="4.5" maxSpeed="3.670758048338349" />
	<vType id="vType_car_13.360112872945127" accel="1.0" decel="5.0" sigma="0.0" length="4.5" maxSpeed="3.7111424647069797" />
	<vType id="vType_car_20.68441338554981" accel="1.0" decel="5.0" sigma="0.0" length="4.5" maxSpeed="5.7456703848749475" />
	<vType id="vType_car_26.139143061602272" accel="1.0" decel="5.0" sigma="0.0" length="4.5" maxSpeed="7.260873072667298" />
	<vType id="vType_car_24.927207254593373" accel="1.0" decel="5.0" sigma="0.0" length="4.5" maxSpeed="6.9242242373870475" />
	<vType id="vType_car_33.259587588107756" accel="1.0" decel="5.0" sigma="0.0" length="4.5" maxSpeed="9.238774330029932" />
	<vType id="vType_car_12.42731376127061" accel="1.0" decel="5.0" sigma="0.0" length="4.5" maxSpeed="3.452031600352947" />
	<vType id="vType_car_7.71183293095333" accel="1.0" decel="5.0" sigma="0.0" length="4.5" maxSpeed="2.1421758141537026" />
	<vType id="vType_car_33.23118028142591" accel="1.0" decel="5.0" sigma="0.0" length="4.5" maxSpeed="9.230883411507197" />
	<vType id="vType_car_24.249841732287607" accel="1.0" decel="5.0" sigma="0.0" length="4.5" maxSpeed="6.736067147857669" />
	<vType id="vType_car_16.673213575211385" accel="1.0" decel="5.0" sigma="0.0" length="4.5" maxSpeed="4.631448215336496" />
	<vType id="vType_car_21.959522284569186" accel="1.0" decel="5.0" sigma="0.0" length="4.5" maxSpeed="6.099867301269218" />
	<vType id="vType_car_7.596974226993765" accel="1.0" decel="5.0" sigma="0.0" length="4.5" maxSpeed="2.110270618609379" />
	<vType id="vType_car_17.919091098377333" accel="1.0" decel="5.0" sigma="0.0" length="4.5" maxSpeed="4.977525305104814" />
	<vType id="vType_car_22.231183700535265" accel="1.0" decel="5.0" sigma="0.0" length="4.5" maxSpeed="6.17532880570424" />
	<vType id="vType_car_10.096806106147467" accel="1.0" decel="5.0" sigma="0.0" length="4.5" maxSpeed="2.8046683628187408" />
	<vType id="vType_car_31.571692102304894" accel="1.0" decel="5.0" sigma="0.0" length="4.5" maxSpeed="8.769914472862471" />
	<vType id="vType_car_3.1493315383854803" accel="1.0" decel="5.0" sigma="0.0" length="4.5" maxSpeed="0.874814316218189" />
	<vType id="vType_car_16.6945572717983" accel="1.0" decel="5.0" sigma="0.0" length="4.5" maxSpeed="4.637377019943972" />
	<vType id="vType_car_22.929259956892984" accel="1.0" decel="5.0" sigma="0.0" length="4.5" maxSpeed="6.369238876914718" />
	<vType id="vType_car_3.7791978460625764" accel="1.0" decel="5.0" sigma="0.0" length="4.5" maxSpeed="1.0497771794618267" />
	<vType id="vType_car_4.2178911375202786" accel="1.0" decel="5.0" sigma="0.0" length="4.5" maxSpeed="1.1716364270889663" />
	<vType id="vType_car_16.636583314361243" accel="1.0" decel="5.0" sigma="0.0" length="4.5" maxSpeed="4.621273142878123" />
	<vType id="vType_car_9.160727189051785" accel="1.0" decel="5.0" sigma="0.0" length="4.5" maxSpeed="2.5446464414032737" />
	<vType id="vType_car_32.21028602103821" accel="1.0" decel="5.0" sigma="0.0" length="4.5" maxSpeed="8.947301672510614" />
	<vType id="vType_car_30.601717847849454" accel="1.0" decel="5.0" sigma="0.0" length="4.5" maxSpeed="8.500477179958182" />
	<vType id="vType_car_36.676091429943675" accel="1.0" decel="5.0" sigma="0.0" length="4.5" maxSpeed="10.187803174984355" />
	<vType id="vType_car_30.765440066109505" accel="1.0" decel="5.0" sigma="0.0" length="4.5" maxSpeed="8.545955573919306" />
	<vType id="vType_car_3.382409167537206" accel="1.0" decel="5.0" sigma="0.0" length="4.5" maxSpeed="0.9395581020936683" />
	<vType id="vType_car_32.0174581894153" accel="1.0" decel="5.0" sigma="0.0" length="4.5" maxSpeed="8.893738385948694" />
	<vType id="vType_car_24.572533940637314" accel="1.0" decel="5.0" sigma="0.0" length="4.5" maxSpeed="6.825703872399254" />
	<vType id="vType_truck_20.371654500825777" accel="1.0" decel="5.0" sigma="0.0" length="8" maxSpeed="5.658792916896049" />
	<vType id="vType_car_2.9322355722175764" accel="1.0" decel="5.0" sigma="0.0" length="4.5" maxSpeed="0.814509881171549" />
	<vType id="vType_car_18.034260557092576" accel="1.0" decel="5.0" sigma="0.0" length="4.5" maxSpeed="5.009516821414604" />
	<vType id="vType_car_26.026512500736516" accel="1.0" decel="5.0" sigma="0.0" length="4.5" maxSpeed="7.229586805760143" />
	<vType id="vType_car_15.410383415342507" accel="1.0" decel="5.0" sigma="0.0" length="4.5" maxSpeed="4.280662059817363" />
	<vType id="vType_car_26.17244293444317" accel="1.0" decel="5.0" sigma="0.0" length="4.5" maxSpeed="7.270123037345324" />
	<vType id="vType_car_17.515709974804025" accel="1.0" decel="5.0" sigma="0.0" length="4.5" maxSpeed="4.865474993001118" />
	<vType id="vType_car_19.38742780635803" accel="1.0" decel="5.0" sigma="0.0" length="4.5" maxSpeed="5.385396612877231" />
	<vType id="vType_car_31.044701314941687" accel="1.0" decel="5.0" sigma="0.0" length="4.5" maxSpeed="8.623528143039357" />
	<vType id="vType_car_30.586149923513627" accel="1.0" decel="5.0" sigma="0.0" length="4.5" maxSpeed="8.496152756531563" />
	<vType id="vType_car_5.082423727770085" accel="1.0" decel="5.0" sigma="0.0" length="4.5" maxSpeed="1.4117843688250238" />
	<vType id="vType_car_21.1836876113825" accel="1.0" decel="5.0" sigma="0.0" length="4.5" maxSpeed="5.884357669828472" />
	<vType id="vType_car_4.445626581242181" accel="1.0" decel="5.0" sigma="0.0" length="4.5" maxSpeed="1.2348962725672725" />
	<vType id="vType_car_34.111809285560234" accel="1.0" decel="5.0" sigma="0.0" length="4.5" maxSpeed="9.475502579322287" />
	<vType id="vType_car_32.09670012484093" accel="1.0" decel="5.0" sigma="0.0" length="4.5" maxSpeed="8.915750034678036" />
	<vType id="vType_car_31.711298809113888" accel="1.0" decel="5.0" sigma="0.0" length="4.5" maxSpeed="8.808694113642746" />
	<vType id="vType_car_38.80867996436787" accel="1.0" decel="5.0" sigma="0.0" length="4.5" maxSpeed="10.780188878991074" />
	<vType id="vType_car_26.29205846197228" accel="1.0" decel="5.0" sigma="0.0" length="4.5" maxSpeed="7.303349572770078" />
	<vType id="vType_car_13.3144742258553" accel="1.0" decel="5.0" sigma="0.0" length="4.5" maxSpeed="3.6984650627375832" />
	<vType id="vType_car_11.131683755159745" accel="1.0" decel="5.0" sigma="0.0" length="4.5" maxSpeed="3.0921343764332625" />
	<vType id="vType_car_30.94604126801411" accel="1.0" decel="5.0" sigma="0.0" length="4.5" maxSpeed="8.596122574448364" />
	<vType id="vType_car_21.25292959604313" accel="1.0" decel="5.0" sigma="0.0" length="4.5" maxSpeed="5.903591554456425" />
	<vType id="vType_car_1.850878201385446" accel="1.0" decel="5.0" sigma="0.0" length="4.5" maxSpeed="0.5141328337181794" />
	<vType id="vType_car_10.69356409590871" accel="1.0" decel="5.0" sigma="0.0" length="4.5" maxSpeed="2.970434471085753" />
	<vType id="vType_car_24.686487943320728" accel="1.0" decel="5.0" sigma="0.0" length="4.5" maxSpeed="6.857357762033535" />
	<vType id="vType_car_3.6714093201339275" accel="1.0" decel="5.0" sigma="0.0" length="4.5" maxSpeed="1.0198359222594242" />
	<vType id="vType_car_35.67429135748231" accel="1.0" decel="5.0" sigma="0.0" length="4.5" maxSpeed="9.909525377078419" />
	<vType id="vType_car_4.462378143204132" accel="1.0" decel="5.0" sigma="0.0" length="4.5" maxSpeed="1.23954948422337" />
	<vType id="vType_car_19.40682704087937" accel="1.0" decel="5.0" sigma="0.0" length="4.5" maxSpeed="5.3907852891331585" />
	<vType id="vType_car_10.969173028916513" accel="1.0" decel="5.0" sigma="0.0" length="4.5" maxSpeed="3.0469925080323645" />
	<vType id="vType_car_4.092667885701155" accel="1.0" decel="5.0" sigma="0.0" length="4.5" maxSpeed="1.136852190472543" />
	<vType id="vType_car_6.3552741155974255" accel="1.0" decel="5.0" sigma="0.0" length="4.5" maxSpeed="1.7653539209992848" />
	<vType id="vType_car_3.854781802983826" accel="1.0" decel="5.0" sigma="0.0" length="4.5" maxSpeed="1.0707727230510629" />
	<vType id="vType_car_3.080463891629831" accel="1.0" decel="5.0" sigma="0.0" length="4.5" maxSpeed="0.8556844143416197" />
	<vType id="vType_car_7.421146164772747" accel="1.0" decel="5.0" sigma="0.0" length="4.5" maxSpeed="2.061429490214652" />
	<route id="route_north_to_east" edges="north_to_center center_to_east" />
	<route id="route_north_to_south" edges="north_to_center center_to_south" />
	<route id="route_north_to_west" edges="north_to_center center_to_west" />
	<route id="route_east_to_west" edges="east_to_center center_to_west" />
	<route id="route_east_to_south" edges="east_to_center center_to_south" />
	<route id="route_east_to_north" edges="east_to_center center_to_north" />
	<route id="route_south_to_west" edges="south_to_center center_to_west" />
	<route id="route_south_to_north" edges="south_to_center center_to_north" />
	<route id="route_south_to_east" edges="south_to_center center_to_east" />
	<route id="route_west_to_south" edges="west_to_center center_to_south" />
	<route id="route_west_to_north" edges="west_to_center center_to_north" />
	<route id="route_west_to_east" edges="west_to_center center_to_east" />
	<vehicle id="veh131" type="vType_car_21.379119390586485" route="route_west_to_south" depart="2.77" />
	<vehicle id="veh134" type="vType_car_18.359802576744976" route="route_west_to_north" depart="5.00" />
	<vehicle id="veh136" type="vType_car_42.87654144625664" route="route_east_to_west" depart="5.33" />
	<vehicle id="veh137" type="vType_car_10.035053048065556" route="route_east_to_north" depart="7.40" />
	<vehicle id="veh140" type="vType_car_24.323754999254867" route="route_south_to_north" depart="19.80" />
	<vehicle id="veh142" type="vType_car_29.570105032843298" route="route_south_to_north" depart="22.87" />
	<vehicle id="veh143" type="vType_car_29.332803094111004" route="route_south_to_north" depart="25.34" />
	<vehicle id="veh144" type="vType_car_36.62778194335254" route="route_south_to_west" depart="33.54" />
	<vehicle id="veh145" type="vType_car_27.43666237828277" route="route_north_to_west" depart="35.04" />
	<vehicle id="veh146" type="vType_car_35.18568253023679" route="route_north_to_south" depart="38.17" />
	<vehicle id="veh148" type="vType_car_26.31609895255614" route="route_north_to_west" depart="39.81" />
	<vehicle id="veh150" type="vType_car_27.672307525212986" route="route_north_to_south" depart="39.98" />
	<vehicle id="veh153" type="vType_car_31.911259017732895" route="route_north_to_south" depart="42.38" />
	<vehicle id="veh154" type="vType_car_21.4328572776001" route="route_north_to_east" depart="43.64" />
	<vehicle id="veh155" type="vType_car_29.51885694286569" route="route_north_to_south" depart="44.01" />
	<vehicle id="veh156" type="vType_car_26.687651536568882" route="route_north_to_south" depart="46.44" />
	<vehicle id="veh158" type="vType_car_18.31731187763352" route="route_north_to_east" depart="50.08" />
	<vehicle id="veh160" type="vType_car_33.698448309080945" route="route_north_to_south" depart="50.38" />
	<vehicle id="veh161" type="vType_car_30.459368213350224" route="route_north_to_south" depart="52.24" />
	<vehicle id="veh164" type="vType_car_15.732734182683423" route="route_north_to_east" depart="52.91" />
	<vehicle id="veh168" type="vType_car_31.15202725571059" route="route_north_to_south" depart="55.15" />
    <vehicle id="veh173" type="vType_car_16.15898829420272" route="route_east_to_west" depart="63.87" />
	<vehicle id="veh174" type="vType_car_40.34499289665272" route="route_north_to_south" depart="64.40" />
	<vehicle id="veh176" type="vType_car_13.569050485111557" route="route_north_to_east" depart="67.80" />
	<vehicle id="veh177" type="vType_car_13.214728974018056" route="route_west_to_east" depart="70.17" />
	<vehicle id="veh180" type="vType_car_20.68441338554981" route="route_north_to_west" depart="78.44" />
	<vehicle id="veh181" type="vType_car_26.139143061602272" route="route_north_to_south" depart="81.04" />
	<vehicle id="veh183" type="vType_car_24.927207254593373" route="route_north_to_south" depart="83.07" />
	<vehicle id="veh187" type="vType_car_33.259587588107756" route="route_south_to_north" depart="84.31" />
	<vehicle id="veh189" type="vType_car_12.42731376127061" route="route_north_to_east" depart="86.97" />
	<vehicle id="veh192" type="vType_car_7.71183293095333" route="route_east_to_north" depart="91.87" />
	<vehicle id="veh194" type="vType_car_33.23118028142591" route="route_south_to_north" depart="92.01" />
	<vehicle id="veh195" type="vType_car_24.249841732287607" route="route_south_to_west" depart="92.57" />
	<vehicle id="veh197" type="vType_car_16.673213575211385" route="route_north_to_east" depart="95.21" />
	<vehicle id="veh198" type="vType_car_21.959522284569186" route="route_south_to_west" depart="96.97" />
	<vehicle id="veh201" type="vType_car_7.596974226993765" route="route_east_to_north" depart="97.54" />
	<vehicle id="veh202" type="vType_car_17.919091098377333" route="route_north_to_east" depart="99.17" />
	<vehicle id="veh205" type="vType_car_22.231183700535265" route="route_north_to_west" depart="100.58" />
	<vehicle id="veh207" type="vType_car_10.096806106147467" route="route_west_to_north" depart="102.14" />
	<vehicle id="veh210" type="vType_car_31.571692102304894" route="route_north_to_south" depart="103.74" />
	<vehicle id="veh212" type="vType_car_16.6945572717983" route="route_north_to_east" depart="106.58" />
	<vehicle id="veh215" type="vType_car_22.929259956892984" route="route_north_to_west" depart="108.24" />
	<vehicle id="veh221" type="vType_car_16.636583314361243" route="route_north_to_south" depart="110.48" />
	<vehicle id="veh222" type="vType_car_9.160727189051785" route="route_east_to_north" depart="112.01" />
	<vehicle id="veh225" type="vType_car_30.601717847849454" route="route_east_to_west" depart="116.45" />
	<vehicle id="veh227" type="vType_car_36.676091429943675" route="route_west_to_east" depart="116.85" />
	<vehicle id="veh231" type="vType_car_30.765440066109505" route="route_west_to_south" depart="120.21" />
	<vehicle id="veh234" type="vType_car_32.0174581894153" route="route_east_to_west" depart="122.08" />
	<vehicle id="veh235" type="vType_car_24.572533940637314" route="route_west_to_south" depart="122.11" />
	<vehicle id="veh239" type="vType_car_18.034260557092576" route="route_south_to_north" depart="137.05" />
	<vehicle id="veh241" type="vType_car_26.026512500736516" route="route_north_to_south" depart="140.02" />
	<vehicle id="veh243" type="vType_car_26.17244293444317" route="route_north_to_south" depart="140.68" />
	<vehicle id="veh245" type="vType_car_17.515709974804025" route="route_north_to_east" depart="141.02" />
	<vehicle id="veh246" type="vType_car_19.38742780635803" route="route_north_to_west" depart="141.95" />
	<vehicle id="veh247" type="vType_car_31.044701314941687" route="route_north_to_south" depart="144.55" />
	<vehicle id="veh248" type="vType_car_30.586149923513627" route="route_north_to_south" depart="146.92" />
	<vehicle id="veh250" type="vType_car_21.1836876113825" route="route_south_to_north" depart="150.25" />
	<vehicle id="veh252" type="vType_car_34.111809285560234" route="route_north_to_south" depart="150.75" />
	<vehicle id="veh253" type="vType_car_32.09670012484093" route="route_south_to_north" depart="152.02" />
	<vehicle id="veh254" type="vType_car_31.711298809113888" route="route_north_to_south" depart="152.52" />
	<vehicle id="veh256" type="vType_car_38.80867996436787" route="route_north_to_south" depart="156.09" />
	<vehicle id="veh258" type="vType_car_26.29205846197228" route="route_north_to_west" depart="157.85" />
	<vehicle id="veh259" type="vType_car_13.3144742258553" route="route_north_to_east" depart="161.25" />
	<vehicle id="veh271" type="vType_car_24.686487943320728" route="route_south_to_north" depart="168.06" />
	<vehicle id="veh274" type="vType_car_35.67429135748231" route="route_south_to_north" depart="169.42" />
</routes>
