<?xml version='1.0' encoding='utf-8'?>
<routes><vType id="vType_car_85.55090491631917" accel="1.0" decel="5.0" sigma="0.0" length="4.5" maxSpeed="23.764140254533103" /><vType id="vType_car_50.89015685344724" accel="1.0" decel="5.0" sigma="0.0" length="4.5" maxSpeed="14.136154681513121" /><vType id="vType_car_17.87256595777153" accel="1.0" decel="5.0" sigma="0.0" length="4.5" maxSpeed="4.964601654936536" /><vType id="vType_car_18.44107650279477" accel="1.0" decel="5.0" sigma="0.0" length="4.5" maxSpeed="5.122521250776324" /><vType id="vType_car_6.94662574012763" accel="1.0" decel="5.0" sigma="0.0" length="4.5" maxSpeed="1.929618261146564" /><vType id="vType_car_20.544744119980667" accel="1.0" decel="5.0" sigma="0.0" length="4.5" maxSpeed="5.706873366661296" /><vType id="vType_car_4.892790075266172" accel="1.0" decel="5.0" sigma="0.0" length="4.5" maxSpeed="1.3591083542406033" /><vType id="vType_car_20.1427187569231" accel="1.0" decel="5.0" sigma="0.0" length="4.5" maxSpeed="5.595199654700861" /><vType id="vType_car_5.042127898598353" accel="1.0" decel="5.0" sigma="0.0" length="4.5" maxSpeed="1.400591082943987" /><vType id="vType_car_3.278938301314028" accel="1.0" decel="5.0" sigma="0.0" length="4.5" maxSpeed="0.9108161948094522" /><vType id="vType_car_5.352762906507278" accel="1.0" decel="5.0" sigma="0.0" length="4.5" maxSpeed="1.4868785851409105" /><vType id="vType_car_3.868104935187895" accel="1.0" decel="5.0" sigma="0.0" length="4.5" maxSpeed="1.0744735931077485" /><vType id="vType_car_13.731907355311463" accel="1.0" decel="5.0" sigma="0.0" length="4.5" maxSpeed="3.8144187098087396" /><vType id="vType_car_19.457945176081772" accel="1.0" decel="5.0" sigma="0.0" length="4.5" maxSpeed="5.404984771133825" /><vType id="vType_car_50.16502311142324" accel="1.0" decel="5.0" sigma="0.0" length="4.5" maxSpeed="13.93472864206201" /><vType id="vType_car_11.06129347115797" accel="1.0" decel="5.0" sigma="0.0" length="4.5" maxSpeed="3.0725815197661026" /><vType id="vType_car_34.439351384047114" accel="1.0" decel="5.0" sigma="0.0" length="4.5" maxSpeed="9.566486495568643" /><vType id="vType_car_3.765655430326989" accel="1.0" decel="5.0" sigma="0.0" length="4.5" maxSpeed="1.0460153973130524" /><vType id="vType_car_49.90872627200242" accel="1.0" decel="5.0" sigma="0.0" length="4.5" maxSpeed="13.863535075556227" /><vType id="vType_car_33.282848948866324" accel="1.0" decel="5.0" sigma="0.0" length="4.5" maxSpeed="9.245235819129535" /><vType id="vType_car_3.2401221449918594" accel="1.0" decel="5.0" sigma="0.0" length="4.5" maxSpeed="0.9000339291644054" /><vType id="vType_car_21.276992489062366" accel="1.0" decel="5.0" sigma="0.0" length="4.5" maxSpeed="5.910275691406213" /><vType id="vType_car_7.482922174981217" accel="1.0" decel="5.0" sigma="0.0" length="4.5" maxSpeed="2.078589493050338" /><vType id="vType_car_77.11898198790124" accel="1.0" decel="5.0" sigma="0.0" length="4.5" maxSpeed="21.421939441083676" /><vType id="vType_car_9.554324545382212" accel="1.0" decel="5.0" sigma="0.0" length="4.5" maxSpeed="2.653979040383948" /><vType id="vType_truck_26.52795693796155" accel="1.0" decel="5.0" sigma="0.0" length="8" maxSpeed="7.3688769272115415" /><vType id="vType_car_23.3196541946721" accel="1.0" decel="5.0" sigma="0.0" length="4.5" maxSpeed="6.47768172074225" /><vType id="vType_car_43.82484742403897" accel="1.0" decel="5.0" sigma="0.0" length="4.5" maxSpeed="12.173568728899713" /><vType id="vType_car_7.628213485414171" accel="1.0" decel="5.0" sigma="0.0" length="4.5" maxSpeed="2.118948190392825" /><vType id="vType_car_4.377948524544496" accel="1.0" decel="5.0" sigma="0.0" length="4.5" maxSpeed="1.216096812373471" /><vType id="vType_car_22.939538594136724" accel="1.0" decel="5.0" sigma="0.0" length="4.5" maxSpeed="6.372094053926868" /><vType id="vType_car_3.8642591197579175" accel="1.0" decel="5.0" sigma="0.0" length="4.5" maxSpeed="1.073405311043866" /><vType id="vType_car_25.672402140169396" accel="1.0" decel="5.0" sigma="0.0" length="4.5" maxSpeed="7.131222816713721" /><vType id="vType_car_4.221407210422249" accel="1.0" decel="5.0" sigma="0.0" length="4.5" maxSpeed="1.1726131140061802" /><vType id="vType_car_6.182543754692961" accel="1.0" decel="5.0" sigma="0.0" length="4.5" maxSpeed="1.7173732651924891" /><vType id="vType_car_7.332169747445902" accel="1.0" decel="5.0" sigma="0.0" length="4.5" maxSpeed="2.036713818734973" /><vType id="vType_car_36.57816766876275" accel="1.0" decel="5.0" sigma="0.0" length="4.5" maxSpeed="10.160602130211876" /><vType id="vType_car_27.114214939714543" accel="1.0" decel="5.0" sigma="0.0" length="4.5" maxSpeed="7.531726372142929" /><vType id="vType_car_42.45943606847154" accel="1.0" decel="5.0" sigma="0.0" length="4.5" maxSpeed="11.794287796797649" /><vType id="vType_car_41.53182871397472" accel="1.0" decel="5.0" sigma="0.0" length="4.5" maxSpeed="11.536619087215199" /><vType id="vType_car_10.099451222002685" accel="1.0" decel="5.0" sigma="0.0" length="4.5" maxSpeed="2.805403117222968" /><vType id="vType_car_28.85744839373698" accel="1.0" decel="5.0" sigma="0.0" length="4.5" maxSpeed="8.015957887149161" /><vType id="vType_car_5.007395287076432" accel="1.0" decel="5.0" sigma="0.0" length="4.5" maxSpeed="1.3909431352990087" /><vType id="vType_car_36.84244945333223" accel="1.0" decel="5.0" sigma="0.0" length="4.5" maxSpeed="10.23401373703673" /><vType id="vType_car_25.312285086072258" accel="1.0" decel="5.0" sigma="0.0" length="4.5" maxSpeed="7.031190301686738" /><vType id="vType_car_5.415852219301038" accel="1.0" decel="5.0" sigma="0.0" length="4.5" maxSpeed="1.5044033942502884" /><vType id="vType_car_27.620408745824697" accel="1.0" decel="5.0" sigma="0.0" length="4.5" maxSpeed="7.672335762729082" /><vType id="vType_car_6.826062164642235" accel="1.0" decel="5.0" sigma="0.0" length="4.5" maxSpeed="1.8961283790672876" /><vType id="vType_car_31.114342544322266" accel="1.0" decel="5.0" sigma="0.0" length="4.5" maxSpeed="8.642872928978408" /><vType id="vType_car_9.852235869482078" accel="1.0" decel="5.0" sigma="0.0" length="4.5" maxSpeed="2.7367321859672438" /><vType id="vType_car_31.729325939738867" accel="1.0" decel="5.0" sigma="0.0" length="4.5" maxSpeed="8.813701649927463" /><vType id="vType_car_59.458556102096644" accel="1.0" decel="5.0" sigma="0.0" length="4.5" maxSpeed="16.516265583915732" /><vType id="vType_car_56.416221778995066" accel="1.0" decel="5.0" sigma="0.0" length="4.5" maxSpeed="15.671172716387519" /><vType id="vType_car_64.79569421046057" accel="1.0" decel="5.0" sigma="0.0" length="4.5" maxSpeed="17.998803947350158" /><vType id="vType_car_59.90855770806613" accel="1.0" decel="5.0" sigma="0.0" length="4.5" maxSpeed="16.641266030018368" /><vType id="vType_car_15.68855602449891" accel="1.0" decel="5.0" sigma="0.0" length="4.5" maxSpeed="4.357932229027475" /><vType id="vType_car_32.52377695405381" accel="1.0" decel="5.0" sigma="0.0" length="4.5" maxSpeed="9.034382487237169" /><vType id="vType_car_11.497174197781948" accel="1.0" decel="5.0" sigma="0.0" length="4.5" maxSpeed="3.1936594993838745" /><vType id="vType_car_9.07603499955853" accel="1.0" decel="5.0" sigma="0.0" length="4.5" maxSpeed="2.521120833210703" /><vType id="vType_car_16.184140392237694" accel="1.0" decel="5.0" sigma="0.0" length="4.5" maxSpeed="4.49559455339936" /><vType id="vType_car_10.449874189740177" accel="1.0" decel="5.0" sigma="0.0" length="4.5" maxSpeed="2.9027428304833824" /><vType id="vType_car_57.424982062823396" accel="1.0" decel="5.0" sigma="0.0" length="4.5" maxSpeed="15.951383906339831" /><vType id="vType_car_26.43671001239592" accel="1.0" decel="5.0" sigma="0.0" length="4.5" maxSpeed="7.343530558998866" /><vType id="vType_car_61.111567473631496" accel="1.0" decel="5.0" sigma="0.0" length="4.5" maxSpeed="16.975435409342083" /><vType id="vType_car_46.28938278791103" accel="1.0" decel="5.0" sigma="0.0" length="4.5" maxSpeed="12.85816188553084" /><vType id="vType_car_12.224836207953711" accel="1.0" decel="5.0" sigma="0.0" length="4.5" maxSpeed="3.3957878355426976" /><vType id="vType_car_9.264801660065789" accel="1.0" decel="5.0" sigma="0.0" length="4.5" maxSpeed="2.5735560166849414" /><vType id="vType_car_36.968439798273906" accel="1.0" decel="5.0" sigma="0.0" length="4.5" maxSpeed="10.269011055076085" /><vType id="vType_car_7.728533709527814" accel="1.0" decel="5.0" sigma="0.0" length="4.5" maxSpeed="2.1468149193132815" /><vType id="vType_car_50.13566379927238" accel="1.0" decel="5.0" sigma="0.0" length="4.5" maxSpeed="13.92657327757566" /><vType id="vType_car_62.631841240105494" accel="1.0" decel="5.0" sigma="0.0" length="4.5" maxSpeed="17.397733677807082" /><vType id="vType_car_69.99166777535086" accel="1.0" decel="5.0" sigma="0.0" length="4.5" maxSpeed="19.44212993759746" /><vType id="vType_car_21.082595595090435" accel="1.0" decel="5.0" sigma="0.0" length="4.5" maxSpeed="5.856276554191788" /><vType id="vType_car_19.80677003820613" accel="1.0" decel="5.0" sigma="0.0" length="4.5" maxSpeed="5.501880566168369" /><vType id="vType_car_21.449272172920015" accel="1.0" decel="5.0" sigma="0.0" length="4.5" maxSpeed="5.958131159144449" /><vType id="vType_car_10.636232505920212" accel="1.0" decel="5.0" sigma="0.0" length="4.5" maxSpeed="2.954509029422281" /><vType id="vType_car_31.725730907860267" accel="1.0" decel="5.0" sigma="0.0" length="4.5" maxSpeed="8.812703029961185" /><vType id="vType_car_54.236448095754476" accel="1.0" decel="5.0" sigma="0.0" length="4.5" maxSpeed="15.065680026598464" /><vType id="vType_car_62.19041837177602" accel="1.0" decel="5.0" sigma="0.0" length="4.5" maxSpeed="17.275116214382226" /><vType id="vType_car_12.220608586273551" accel="1.0" decel="5.0" sigma="0.0" length="4.5" maxSpeed="3.3946134961870973" /><vType id="vType_car_11.802180700310892" accel="1.0" decel="5.0" sigma="0.0" length="4.5" maxSpeed="3.2783835278641367" /><vType id="vType_car_10.627862576770745" accel="1.0" decel="5.0" sigma="0.0" length="4.5" maxSpeed="2.9521840491029847" /><vType id="vType_car_11.542165639071175" accel="1.0" decel="5.0" sigma="0.0" length="4.5" maxSpeed="3.2061571219642153" /><vType id="vType_car_7.589026625152376" accel="1.0" decel="5.0" sigma="0.0" length="4.5" maxSpeed="2.1080629514312155" /><vType id="vType_car_58.7681540565452" accel="1.0" decel="5.0" sigma="0.0" length="4.5" maxSpeed="16.324487237929223" /><vType id="vType_car_14.366120815843454" accel="1.0" decel="5.0" sigma="0.0" length="4.5" maxSpeed="3.9905891155120705" /><vType id="vType_car_30.367552457110346" accel="1.0" decel="5.0" sigma="0.0" length="4.5" maxSpeed="8.435431238086206" /><vType id="vType_car_11.401714255124393" accel="1.0" decel="5.0" sigma="0.0" length="4.5" maxSpeed="3.1671428486456645" /><vType id="vType_car_11.261758735746282" accel="1.0" decel="5.0" sigma="0.0" length="4.5" maxSpeed="3.128266315485078" /><vType id="vType_car_7.535615706051392" accel="1.0" decel="5.0" sigma="0.0" length="4.5" maxSpeed="2.0932265850142757" /><vType id="vType_car_54.325613801985135" accel="1.0" decel="5.0" sigma="0.0" length="4.5" maxSpeed="15.090448278329204" /><vType id="vType_car_17.433483559694608" accel="1.0" decel="5.0" sigma="0.0" length="4.5" maxSpeed="4.842634322137391" /><vType id="vType_car_11.779919692854758" accel="1.0" decel="5.0" sigma="0.0" length="4.5" maxSpeed="3.272199914681877" /><vType id="vType_car_70.31447366033025" accel="1.0" decel="5.0" sigma="0.0" length="4.5" maxSpeed="19.531798238980624" /><vType id="vType_car_27.49683244447283" accel="1.0" decel="5.0" sigma="0.0" length="4.5" maxSpeed="7.638009012353564" /><vType id="vType_car_61.08171929268316" accel="1.0" decel="5.0" sigma="0.0" length="4.5" maxSpeed="16.967144247967543" /><vType id="vType_car_10.755004455528058" accel="1.0" decel="5.0" sigma="0.0" length="4.5" maxSpeed="2.9875012376466827" /><vType id="vType_car_60.91587647690193" accel="1.0" decel="5.0" sigma="0.0" length="4.5" maxSpeed="16.921076799139424" /><vType id="vType_car_84.356840309964" accel="1.0" decel="5.0" sigma="0.0" length="4.5" maxSpeed="23.432455641656667" /><vType id="vType_car_21.275817229685646" accel="1.0" decel="5.0" sigma="0.0" length="4.5" maxSpeed="5.909949230468235" /><vType id="vType_car_78.82021773989533" accel="1.0" decel="5.0" sigma="0.0" length="4.5" maxSpeed="21.894504927748702" /><vType id="vType_car_41.88564427640106" accel="1.0" decel="5.0" sigma="0.0" length="4.5" maxSpeed="11.634901187889183" /><vType id="vType_car_26.90566780595967" accel="1.0" decel="5.0" sigma="0.0" length="4.5" maxSpeed="7.4737966127665745" /><vType id="vType_car_37.83023025222733" accel="1.0" decel="5.0" sigma="0.0" length="4.5" maxSpeed="10.50839729228537" /><vType id="vType_car_27.132242065643158" accel="1.0" decel="5.0" sigma="0.0" length="4.5" maxSpeed="7.536733907123099" /><vType id="vType_car_17.97259356441371" accel="1.0" decel="5.0" sigma="0.0" length="4.5" maxSpeed="4.99238710122603" /><vType id="vType_truck_32.26131344935243" accel="1.0" decel="5.0" sigma="0.0" length="8" maxSpeed="8.961475958153452" /><vType id="vType_car_45.9095022762056" accel="1.0" decel="5.0" sigma="0.0" length="4.5" maxSpeed="12.752639521168222" /><vType id="vType_car_41.56274685246127" accel="1.0" decel="5.0" sigma="0.0" length="4.5" maxSpeed="11.545207459017018" /><vType id="vType_car_62.912012094467066" accel="1.0" decel="5.0" sigma="0.0" length="4.5" maxSpeed="17.47555891512974" /><vType id="vType_car_21.938315481905608" accel="1.0" decel="5.0" sigma="0.0" length="4.5" maxSpeed="6.093976522751557" /><vType id="vType_car_19.393489071234605" accel="1.0" decel="5.0" sigma="0.0" length="4.5" maxSpeed="5.387080297565168" /><vType id="vType_car_30.105687694401663" accel="1.0" decel="5.0" sigma="0.0" length="4.5" maxSpeed="8.362691026222684" /><vType id="vType_car_12.896121062172442" accel="1.0" decel="5.0" sigma="0.0" length="4.5" maxSpeed="3.582255850603456" /><vType id="vType_car_56.773410698608025" accel="1.0" decel="5.0" sigma="0.0" length="4.5" maxSpeed="15.770391860724452" /><vType id="vType_car_47.851432350570136" accel="1.0" decel="5.0" sigma="0.0" length="4.5" maxSpeed="13.292064541825038" /><vType id="vType_car_47.68541715904198" accel="1.0" decel="5.0" sigma="0.0" length="4.5" maxSpeed="13.245949210844994" /><vType id="vType_car_31.02388230458031" accel="1.0" decel="5.0" sigma="0.0" length="4.5" maxSpeed="8.617745084605643" /><vType id="vType_car_45.143705525175264" accel="1.0" decel="5.0" sigma="0.0" length="4.5" maxSpeed="12.539918201437573" /><vType id="vType_car_49.203105749168955" accel="1.0" decel="5.0" sigma="0.0" length="4.5" maxSpeed="13.667529374769154" /><vType id="vType_car_13.922326720054826" accel="1.0" decel="5.0" sigma="0.0" length="4.5" maxSpeed="3.867312977793007" /><vType id="vType_car_17.527689292076584" accel="1.0" decel="5.0" sigma="0.0" length="4.5" maxSpeed="4.8688025811323845" /><vType id="vType_car_9.654217494957987" accel="1.0" decel="5.0" sigma="0.0" length="4.5" maxSpeed="2.681727081932774" /><vType id="vType_car_4.890753663648929" accel="1.0" decel="5.0" sigma="0.0" length="4.5" maxSpeed="1.3585426843469246" /><vType id="vType_car_57.16935739963012" accel="1.0" decel="5.0" sigma="0.0" length="4.5" maxSpeed="15.880377055452811" /><vType id="vType_car_3.4832913965800594" accel="1.0" decel="5.0" sigma="0.0" length="4.5" maxSpeed="0.9675809434944609" /><vType id="vType_car_16.147690982892524" accel="1.0" decel="5.0" sigma="0.0" length="4.5" maxSpeed="4.485469717470146" /><vType id="vType_car_17.379588611914123" accel="1.0" decel="5.0" sigma="0.0" length="4.5" maxSpeed="4.827663503309479" /><vType id="vType_car_13.153754302066618" accel="1.0" decel="5.0" sigma="0.0" length="4.5" maxSpeed="3.6538206394629493" /><vType id="vType_car_48.594006787210716" accel="1.0" decel="5.0" sigma="0.0" length="4.5" maxSpeed="13.498335218669643" /><vType id="vType_car_47.28988453185109" accel="1.0" decel="5.0" sigma="0.0" length="4.5" maxSpeed="13.1360790366253" /><vType id="vType_car_49.28532747774227" accel="1.0" decel="5.0" sigma="0.0" length="4.5" maxSpeed="13.690368743817297" /><vType id="vType_car_33.73176554669451" accel="1.0" decel="5.0" sigma="0.0" length="4.5" maxSpeed="9.369934874081808" /><vType id="vType_car_35.51020672763337" accel="1.0" decel="5.0" sigma="0.0" length="4.5" maxSpeed="9.86394631323149" /><vType id="vType_car_17.142342556591853" accel="1.0" decel="5.0" sigma="0.0" length="4.5" maxSpeed="4.761761821275514" /><vType id="vType_car_21.363339984548084" accel="1.0" decel="5.0" sigma="0.0" length="4.5" maxSpeed="5.934261106818912" /><vType id="vType_car_6.8287400400539955" accel="1.0" decel="5.0" sigma="0.0" length="4.5" maxSpeed="1.896872233348332" /><vType id="vType_car_53.36958902306415" accel="1.0" decel="5.0" sigma="0.0" length="4.5" maxSpeed="14.824885839740041" /><vType id="vType_car_55.02000124768266" accel="1.0" decel="5.0" sigma="0.0" length="4.5" maxSpeed="15.283333679911848" /><vType id="vType_car_28.28239850593921" accel="1.0" decel="5.0" sigma="0.0" length="4.5" maxSpeed="7.856221807205336" /><vType id="vType_car_17.614767550169038" accel="1.0" decel="5.0" sigma="0.0" length="4.5" maxSpeed="4.892990986158066" /><vType id="vType_car_35.94857700158855" accel="1.0" decel="5.0" sigma="0.0" length="4.5" maxSpeed="9.985715833774599" /><vType id="vType_car_35.21280865261679" accel="1.0" decel="5.0" sigma="0.0" length="4.5" maxSpeed="9.781335736837997" /><vType id="vType_car_30.899551166835582" accel="1.0" decel="5.0" sigma="0.0" length="4.5" maxSpeed="8.583208657454328" /><vType id="vType_car_14.706076659109463" accel="1.0" decel="5.0" sigma="0.0" length="4.5" maxSpeed="4.085021294197073" /><vType id="vType_car_6.966582793160118" accel="1.0" decel="5.0" sigma="0.0" length="4.5" maxSpeed="1.9351618869889216" /><vType id="vType_bus_13.507438387854975" accel="1.0" decel="5.0" sigma="0.0" length="13" maxSpeed="3.7520662188486043" /><vType id="vType_car_19.324649771855047" accel="1.0" decel="5.0" sigma="0.0" length="4.5" maxSpeed="5.367958269959735" /><vType id="vType_car_14.2796018897171" accel="1.0" decel="5.0" sigma="0.0" length="4.5" maxSpeed="3.966556080476972" /><vType id="vType_car_8.672118974039002" accel="1.0" decel="5.0" sigma="0.0" length="4.5" maxSpeed="2.408921937233056" /><vType id="vType_car_16.424036273409488" accel="1.0" decel="5.0" sigma="0.0" length="4.5" maxSpeed="4.562232298169302" /><vType id="vType_car_5.236126827909026" accel="1.0" decel="5.0" sigma="0.0" length="4.5" maxSpeed="1.454479674419174" /><vType id="vType_truck_9.972888368698095" accel="1.0" decel="5.0" sigma="0.0" length="8" maxSpeed="2.7702467690828043" /><vType id="vType_car_16.666247222798138" accel="1.0" decel="5.0" sigma="0.0" length="4.5" maxSpeed="4.629513117443927" /><vType id="vType_car_14.118908221237366" accel="1.0" decel="5.0" sigma="0.0" length="4.5" maxSpeed="3.9219189503437124" /><vType id="vType_car_42.51996957877782" accel="1.0" decel="5.0" sigma="0.0" length="4.5" maxSpeed="11.811102660771615" /><vType id="vType_car_59.206688818316515" accel="1.0" decel="5.0" sigma="0.0" length="4.5" maxSpeed="16.446302449532364" /><vType id="vType_car_14.342523697146381" accel="1.0" decel="5.0" sigma="0.0" length="4.5" maxSpeed="3.9840343603184394" /><vType id="vType_truck_8.864347529477728" accel="1.0" decel="5.0" sigma="0.0" length="8" maxSpeed="2.4623187581882577" /><vType id="vType_car_16.167494362901493" accel="1.0" decel="5.0" sigma="0.0" length="4.5" maxSpeed="4.490970656361526" /><vType id="vType_car_15.844468226339485" accel="1.0" decel="5.0" sigma="0.0" length="4.5" maxSpeed="4.40124117398319" /><vType id="vType_car_31.81054583797397" accel="1.0" decel="5.0" sigma="0.0" length="4.5" maxSpeed="8.836262732770546" /><vType id="vType_car_4.919336546495852" accel="1.0" decel="5.0" sigma="0.0" length="4.5" maxSpeed="1.3664823740266254" /><vType id="vType_car_22.00506849133219" accel="1.0" decel="5.0" sigma="0.0" length="4.5" maxSpeed="6.1125190253700525" /><vType id="vType_car_3.8804709766698107" accel="1.0" decel="5.0" sigma="0.0" length="4.5" maxSpeed="1.0779086046305029" /><vType id="vType_car_15.4977076611809" accel="1.0" decel="5.0" sigma="0.0" length="4.5" maxSpeed="4.3049187947724725" /><vType id="vType_car_5.779275073146483" accel="1.0" decel="5.0" sigma="0.0" length="4.5" maxSpeed="1.605354186985134" /><vType id="vType_car_16.09207349531721" accel="1.0" decel="5.0" sigma="0.0" length="4.5" maxSpeed="4.470020415365891" /><vType id="vType_car_7.189340787700621" accel="1.0" decel="5.0" sigma="0.0" length="4.5" maxSpeed="1.9970391076946168" /><vType id="vType_car_19.808815666069762" accel="1.0" decel="5.0" sigma="0.0" length="4.5" maxSpeed="5.50244879613049" /><vType id="vType_car_3.659298227636746" accel="1.0" decel="5.0" sigma="0.0" length="4.5" maxSpeed="1.0164717298990962" /><vType id="vType_car_4.388079015780718" accel="1.0" decel="5.0" sigma="0.0" length="4.5" maxSpeed="1.2189108377168663" /><vType id="vType_car_20.08821338414404" accel="1.0" decel="5.0" sigma="0.0" length="4.5" maxSpeed="5.580059273373345" /><vType id="vType_car_7.778390348015917" accel="1.0" decel="5.0" sigma="0.0" length="4.5" maxSpeed="2.160663985559977" /><route id="route_north_to_east" edges="north_to_center center_to_east" /><route id="route_north_to_south" edges="north_to_center center_to_south" /><route id="route_north_to_west" edges="north_to_center center_to_west" /><route id="route_east_to_west" edges="east_to_center center_to_west" /><route id="route_east_to_south" edges="east_to_center center_to_south" /><route id="route_east_to_north" edges="east_to_center center_to_north" /><route id="route_south_to_west" edges="south_to_center center_to_west" /><route id="route_south_to_north" edges="south_to_center center_to_north" /><route id="route_south_to_east" edges="south_to_center center_to_east" /><route id="route_west_to_south" edges="west_to_center center_to_south" /><route id="route_west_to_north" edges="west_to_center center_to_north" /><route id="route_west_to_east" edges="west_to_center center_to_east" /><vehicle id="veh15" type="vType_car_50.89015685344724" route="route_north_to_south" depart="0.04" /><vehicle id="veh59" type="vType_car_17.87256595777153" route="route_west_to_north" depart="0.04" /><vehicle id="veh96" type="vType_car_18.44107650279477" route="route_west_to_north" depart="0.04" /><vehicle id="veh158" type="vType_car_20.544744119980667" route="route_west_to_east" depart="0.04" /><vehicle id="veh164" type="vType_car_20.1427187569231" route="route_west_to_east" depart="0.04" /><vehicle id="veh172" type="vType_car_13.731907355311463" route="route_west_to_south" depart="1.56" /><vehicle id="veh176" type="vType_car_19.457945176081772" route="route_west_to_east" depart="4.23" /><vehicle id="veh177" type="vType_car_50.16502311142324" route="route_north_to_south" depart="4.23" /><vehicle id="veh178" type="vType_car_11.06129347115797" route="route_north_to_west" depart="5.03" /><vehicle id="veh179" type="vType_car_34.439351384047114" route="route_south_to_north" depart="5.46" /><vehicle id="veh192" type="vType_car_23.3196541946721" route="route_north_to_west" depart="14.18" /><vehicle id="veh194" type="vType_car_43.82484742403897" route="route_south_to_north" depart="14.79" /><vehicle id="veh199" type="vType_car_22.939538594136724" route="route_south_to_east" depart="17.36" /><vehicle id="veh206" type="vType_car_25.672402140169396" route="route_west_to_south" depart="21.85" /><vehicle id="veh213" type="vType_car_36.57816766876275" route="route_west_to_east" depart="25.07" /><vehicle id="veh214" type="vType_car_27.114214939714543" route="route_west_to_north" depart="25.36" /><vehicle id="veh216" type="vType_car_41.53182871397472" route="route_west_to_east" depart="26.08" /><vehicle id="veh234" type="vType_car_31.729325939738867" route="route_west_to_north" depart="32.84" /><vehicle id="veh274" type="vType_car_58.7681540565452" route="route_west_to_south" depart="36.50" /><vehicle id="veh282" type="vType_car_17.433483559694608" route="route_east_to_south" depart="36.97" /><vehicle id="veh313" type="vType_car_56.773410698608025" route="route_west_to_south" depart="38.99" /><vehicle id="veh329" type="vType_car_17.379588611914123" route="route_east_to_north" depart="40.08" /><vehicle id="veh353" type="vType_bus_13.507438387854975" route="route_west_to_north" depart="44.75" /><vehicle id="veh354" type="vType_car_19.324649771855047" route="route_west_to_south" depart="44.78" /><vehicle id="veh358" type="vType_car_16.424036273409488" route="route_east_to_north" depart="44.89" /><vehicle id="veh372" type="vType_car_14.342523697146381" route="route_south_to_east" depart="48.47" /><vehicle id="veh375" type="vType_car_16.167494362901493" route="route_south_to_east" depart="48.91" /><vehicle id="veh380" type="vType_car_31.81054583797397" route="route_east_to_west" depart="51.08" /><vehicle id="veh387" type="vType_car_15.4977076611809" route="route_south_to_east" depart="53.68" /><vehicle id="veh396" type="vType_car_19.808815666069762" route="route_south_to_east" depart="55.67" /></routes>