<?xml version='1.0' encoding='utf-8'?>
<routes><vType id="vType_car_28.26594284222926" accel="1.0" decel="5.0" sigma="0.0" length="4.5" maxSpeed="7.851650789508128" /><vType id="vType_car_9.484856468490955" accel="1.0" decel="5.0" sigma="0.0" length="4.5" maxSpeed="2.6346823523585985" /><vType id="vType_car_5.306299679336166" accel="1.0" decel="5.0" sigma="0.0" length="4.5" maxSpeed="1.473972133148935" /><vType id="vType_car_9.926141698037322" accel="1.0" decel="5.0" sigma="0.0" length="4.5" maxSpeed="2.757261582788145" /><vType id="vType_car_24.828935072970364" accel="1.0" decel="5.0" sigma="0.0" length="4.5" maxSpeed="6.896926409158434" /><vType id="vType_car_9.675349372201797" accel="1.0" decel="5.0" sigma="0.0" length="4.5" maxSpeed="2.6875970478338327" /><vType id="vType_car_8.986323173319967" accel="1.0" decel="5.0" sigma="0.0" length="4.5" maxSpeed="2.4962008814777685" /><vType id="vType_car_3.8298459930712827" accel="1.0" decel="5.0" sigma="0.0" length="4.5" maxSpeed="1.0638461091864675" /><vType id="vType_car_46.69946035236279" accel="1.0" decel="5.0" sigma="0.0" length="4.5" maxSpeed="12.972072320100775" /><vType id="vType_car_34.3948400294439" accel="1.0" decel="5.0" sigma="0.0" length="4.5" maxSpeed="9.554122230401083" /><vType id="vType_car_3.6836136080051327" accel="1.0" decel="5.0" sigma="0.0" length="4.5" maxSpeed="1.023226002223648" /><vType id="vType_car_38.19790260333015" accel="1.0" decel="5.0" sigma="0.0" length="4.5" maxSpeed="10.61052850092504" /><vType id="vType_car_43.48547774470627" accel="1.0" decel="5.0" sigma="0.0" length="4.5" maxSpeed="12.079299373529519" /><vType id="vType_car_49.000279462486255" accel="1.0" decel="5.0" sigma="0.0" length="4.5" maxSpeed="13.611188739579514" /><vType id="vType_car_28.57453452095041" accel="1.0" decel="5.0" sigma="0.0" length="4.5" maxSpeed="7.937370700264003" /><vType id="vType_car_9.16734942063763" accel="1.0" decel="5.0" sigma="0.0" length="4.5" maxSpeed="2.5464859501771193" /><vType id="vType_car_41.540625146401595" accel="1.0" decel="5.0" sigma="0.0" length="4.5" maxSpeed="11.539062540667109" /><vType id="vType_car_44.23549767314329" accel="1.0" decel="5.0" sigma="0.0" length="4.5" maxSpeed="12.287638242539803" /><vType id="vType_car_3.9870454944693963" accel="1.0" decel="5.0" sigma="0.0" length="4.5" maxSpeed="1.10751263735261" /><vType id="vType_car_39.38256405208129" accel="1.0" decel="5.0" sigma="0.0" length="4.5" maxSpeed="10.939601125578136" /><vType id="vType_car_6.015387013191827" accel="1.0" decel="5.0" sigma="0.0" length="4.5" maxSpeed="1.6709408369977297" /><vType id="vType_car_60.559820078635845" accel="1.0" decel="5.0" sigma="0.0" length="4.5" maxSpeed="16.822172244065513" /><vType id="vType_car_29.62462002883228" accel="1.0" decel="5.0" sigma="0.0" length="4.5" maxSpeed="8.229061119120077" /><vType id="vType_car_37.746896618150885" accel="1.0" decel="5.0" sigma="0.0" length="4.5" maxSpeed="10.485249060597468" /><vType id="vType_car_38.54676947698155" accel="1.0" decel="5.0" sigma="0.0" length="4.5" maxSpeed="10.707435965828209" /><vType id="vType_car_19.899391422389805" accel="1.0" decel="5.0" sigma="0.0" length="4.5" maxSpeed="5.527608728441613" /><vType id="vType_car_12.290208073412298" accel="1.0" decel="5.0" sigma="0.0" length="4.5" maxSpeed="3.4139466870589716" /><vType id="vType_car_2.859392275886562" accel="1.0" decel="5.0" sigma="0.0" length="4.5" maxSpeed="0.7942756321907117" /><vType id="vType_car_21.568764895880378" accel="1.0" decel="5.0" sigma="0.0" length="4.5" maxSpeed="5.991323582188993" /><vType id="vType_car_10.153013732840444" accel="1.0" decel="5.0" sigma="0.0" length="4.5" maxSpeed="2.8202815924556788" /><vType id="vType_truck_83.37725524419832" accel="1.0" decel="5.0" sigma="0.0" length="8" maxSpeed="23.16034867894398" /><vType id="vType_car_7.958196730490643" accel="1.0" decel="5.0" sigma="0.0" length="4.5" maxSpeed="2.2106102029140673" /><vType id="vType_truck_94.01194990597088" accel="1.0" decel="5.0" sigma="0.0" length="8" maxSpeed="26.114430529436355" /><vType id="vType_car_2.7406805450926135" accel="1.0" decel="5.0" sigma="0.0" length="4.5" maxSpeed="0.7613001514146148" /><vType id="vType_car_77.81753840911914" accel="1.0" decel="5.0" sigma="0.0" length="4.5" maxSpeed="21.615982891421982" /><vType id="vType_car_7.206200403138236" accel="1.0" decel="5.0" sigma="0.0" length="4.5" maxSpeed="2.0017223342050654" /><vType id="vType_truck_15.61850191119713" accel="1.0" decel="5.0" sigma="0.0" length="8" maxSpeed="4.338472753110314" /><vType id="vType_car_18.135823430322883" accel="1.0" decel="5.0" sigma="0.0" length="4.5" maxSpeed="5.037728730645245" /><vType id="vType_car_69.908941275781" accel="1.0" decel="5.0" sigma="0.0" length="4.5" maxSpeed="19.41915035438361" /><vType id="vType_car_50.48775612816233" accel="1.0" decel="5.0" sigma="0.0" length="4.5" maxSpeed="14.024376702267315" /><vType id="vType_car_62.508898875735625" accel="1.0" decel="5.0" sigma="0.0" length="4.5" maxSpeed="17.363583021037673" /><vType id="vType_car_42.36663411619575" accel="1.0" decel="5.0" sigma="0.0" length="4.5" maxSpeed="11.768509476721041" /><vType id="vType_car_15.7770769535612" accel="1.0" decel="5.0" sigma="0.0" length="4.5" maxSpeed="4.3825213759892225" /><vType id="vType_car_47.744426053278936" accel="1.0" decel="5.0" sigma="0.0" length="4.5" maxSpeed="13.26234057035526" /><vType id="vType_car_55.40711737367292" accel="1.0" decel="5.0" sigma="0.0" length="4.5" maxSpeed="15.390865937131366" /><vType id="vType_car_15.916665195527095" accel="1.0" decel="5.0" sigma="0.0" length="4.5" maxSpeed="4.421295887646415" /><vType id="vType_car_62.180624227225216" accel="1.0" decel="5.0" sigma="0.0" length="4.5" maxSpeed="17.27239561867367" /><vType id="vType_car_74.62434738162078" accel="1.0" decel="5.0" sigma="0.0" length="4.5" maxSpeed="20.72898538378355" /><vType id="vType_car_48.01346609210343" accel="1.0" decel="5.0" sigma="0.0" length="4.5" maxSpeed="13.337073914473175" /><vType id="vType_car_21.63247158507841" accel="1.0" decel="5.0" sigma="0.0" length="4.5" maxSpeed="6.009019884744003" /><vType id="vType_car_41.26367493673616" accel="1.0" decel="5.0" sigma="0.0" length="4.5" maxSpeed="11.462131926871155" /><vType id="vType_car_57.45943219635725" accel="1.0" decel="5.0" sigma="0.0" length="4.5" maxSpeed="15.960953387877012" /><vType id="vType_car_35.08670714376474" accel="1.0" decel="5.0" sigma="0.0" length="4.5" maxSpeed="9.74630753993465" /><vType id="vType_car_4.253520948489433" accel="1.0" decel="5.0" sigma="0.0" length="4.5" maxSpeed="1.1815335968026202" /><vType id="vType_car_40.96928938310897" accel="1.0" decel="5.0" sigma="0.0" length="4.5" maxSpeed="11.380358161974714" /><vType id="vType_car_59.57189173016899" accel="1.0" decel="5.0" sigma="0.0" length="4.5" maxSpeed="16.54774770282472" /><vType id="vType_car_12.20714273530206" accel="1.0" decel="5.0" sigma="0.0" length="4.5" maxSpeed="3.39087298202835" /><vType id="vType_car_46.43456938893145" accel="1.0" decel="5.0" sigma="0.0" length="4.5" maxSpeed="12.898491496925402" /><vType id="vType_car_29.57863461288168" accel="1.0" decel="5.0" sigma="0.0" length="4.5" maxSpeed="8.216287392467132" /><vType id="vType_car_3.5237321294047885" accel="1.0" decel="5.0" sigma="0.0" length="4.5" maxSpeed="0.978814480390219" /><vType id="vType_car_39.83796833115553" accel="1.0" decel="5.0" sigma="0.0" length="4.5" maxSpeed="11.06610231420987" /><vType id="vType_car_33.554641322321665" accel="1.0" decel="5.0" sigma="0.0" length="4.5" maxSpeed="9.320733700644906" /><vType id="vType_car_48.94751941318751" accel="1.0" decel="5.0" sigma="0.0" length="4.5" maxSpeed="13.596533170329863" /><vType id="vType_car_12.337170878214014" accel="1.0" decel="5.0" sigma="0.0" length="4.5" maxSpeed="3.426991910615004" /><vType id="vType_car_49.15819745914355" accel="1.0" decel="5.0" sigma="0.0" length="4.5" maxSpeed="13.655054849762097" /><vType id="vType_car_4.146645850351549" accel="1.0" decel="5.0" sigma="0.0" length="4.5" maxSpeed="1.151846069542097" /><vType id="vType_car_3.885140552933485" accel="1.0" decel="5.0" sigma="0.0" length="4.5" maxSpeed="1.0792057091481904" /><vType id="vType_car_3.9653269025983016" accel="1.0" decel="5.0" sigma="0.0" length="4.5" maxSpeed="1.101479695166195" /><vType id="vType_car_17.634379210772636" accel="1.0" decel="5.0" sigma="0.0" length="4.5" maxSpeed="4.898438669659066" /><vType id="vType_car_43.75881173405247" accel="1.0" decel="5.0" sigma="0.0" length="4.5" maxSpeed="12.155225481681242" /><vType id="vType_car_17.71765715875454" accel="1.0" decel="5.0" sigma="0.0" length="4.5" maxSpeed="4.921571432987372" /><vType id="vType_car_4.4737783481758" accel="1.0" decel="5.0" sigma="0.0" length="4.5" maxSpeed="1.242716207826611" /><vType id="vType_car_24.339693043183424" accel="1.0" decel="5.0" sigma="0.0" length="4.5" maxSpeed="6.761025845328729" /><vType id="vType_car_7.753363713125936" accel="1.0" decel="5.0" sigma="0.0" length="4.5" maxSpeed="2.153712142534982" /><vType id="vType_car_16.44229750897811" accel="1.0" decel="5.0" sigma="0.0" length="4.5" maxSpeed="4.567304863605031" /><vType id="vType_car_5.453869919893956" accel="1.0" decel="5.0" sigma="0.0" length="4.5" maxSpeed="1.5149638666372098" /><vType id="vType_car_4.1685568454510395" accel="1.0" decel="5.0" sigma="0.0" length="4.5" maxSpeed="1.1579324570697331" /><vType id="vType_car_3.60984680060269" accel="1.0" decel="5.0" sigma="0.0" length="4.5" maxSpeed="1.0027352223896362" /><vType id="vType_car_5.092784603376126" accel="1.0" decel="5.0" sigma="0.0" length="4.5" maxSpeed="1.4146623898267017" /><vType id="vType_car_26.87548495391659" accel="1.0" decel="5.0" sigma="0.0" length="4.5" maxSpeed="7.465412487199052" /><vType id="vType_car_27.338029506758865" accel="1.0" decel="5.0" sigma="0.0" length="4.5" maxSpeed="7.593897085210796" /><vType id="vType_car_3.351509310366858" accel="1.0" decel="5.0" sigma="0.0" length="4.5" maxSpeed="0.9309748084352383" /><vType id="vType_car_8.812763243014292" accel="1.0" decel="5.0" sigma="0.0" length="4.5" maxSpeed="2.447989789726192" /><route id="route_north_to_east" edges="north_to_center center_to_east" /><route id="route_north_to_south" edges="north_to_center center_to_south" /><route id="route_north_to_west" edges="north_to_center center_to_west" /><route id="route_east_to_west" edges="east_to_center center_to_west" /><route id="route_east_to_south" edges="east_to_center center_to_south" /><route id="route_east_to_north" edges="east_to_center center_to_north" /><route id="route_south_to_west" edges="south_to_center center_to_west" /><route id="route_south_to_north" edges="south_to_center center_to_north" /><route id="route_south_to_east" edges="south_to_center center_to_east" /><route id="route_west_to_south" edges="west_to_center center_to_south" /><route id="route_west_to_north" edges="west_to_center center_to_north" /><route id="route_west_to_east" edges="west_to_center center_to_east" /><vehicle id="veh700" type="vType_car_28.26594284222926" route="route_east_to_west" depart="0.04" /><vehicle id="veh757" type="vType_car_9.484856468490955" route="route_east_to_north" depart="0.04" /><vehicle id="veh782" type="vType_car_24.828935072970364" route="route_east_to_west" depart="0.04" /><vehicle id="veh773" type="vType_car_9.675349372201797" route="route_east_to_south" depart="0.04" /><vehicle id="veh783" type="vType_car_8.986323173319967" route="route_east_to_north" depart="0.04" /><vehicle id="veh788" type="vType_car_46.69946035236279" route="route_west_to_south" depart="0.04" /><vehicle id="veh793" type="vType_car_38.19790260333015" route="route_west_to_east" depart="0.04" /><vehicle id="veh795" type="vType_car_43.48547774470627" route="route_west_to_east" depart="0.04" /><vehicle id="veh797" type="vType_car_49.000279462486255" route="route_west_to_east" depart="1.68" /><vehicle id="veh798" type="vType_car_28.57453452095041" route="route_east_to_west" depart="1.90" /><vehicle id="veh800" type="vType_car_41.540625146401595" route="route_west_to_east" depart="2.79" /><vehicle id="veh802" type="vType_car_44.23549767314329" route="route_west_to_east" depart="3.15" /><vehicle id="veh804" type="vType_car_39.38256405208129" route="route_west_to_east" depart="5.36" /><vehicle id="veh806" type="vType_car_60.559820078635845" route="route_west_to_east" depart="9.44" /><vehicle id="veh807" type="vType_car_29.62462002883228" route="route_east_to_west" depart="9.44" /><vehicle id="veh809" type="vType_car_37.746896618150885" route="route_east_to_west" depart="10.05" /><vehicle id="veh812" type="vType_car_38.54676947698155" route="route_east_to_west" depart="11.59" /><vehicle id="veh819" type="vType_truck_83.37725524419832" route="route_west_to_east" depart="14.16" /><vehicle id="veh835" type="vType_car_47.744426053278936" route="route_east_to_west" depart="18.59" /><vehicle id="veh838" type="vType_car_15.916665195527095" route="route_east_to_north" depart="18.81" /><vehicle id="veh841" type="vType_car_74.62434738162078" route="route_west_to_east" depart="19.34" /><vehicle id="veh845" type="vType_car_57.45943219635725" route="route_east_to_west" depart="19.34" /><vehicle id="veh850" type="vType_car_40.96928938310897" route="route_east_to_west" depart="21.13" /><vehicle id="veh857" type="vType_car_39.83796833115553" route="route_east_to_west" depart="22.56" /><vehicle id="veh859" type="vType_car_48.94751941318751" route="route_east_to_west" depart="26.00" /><vehicle id="veh860" type="vType_car_12.337170878214014" route="route_south_to_east" depart="26.89" /><vehicle id="veh861" type="vType_car_49.15819745914355" route="route_east_to_west" depart="30.89" /><vehicle id="veh865" type="vType_car_17.634379210772636" route="route_east_to_south" depart="37.44" /><vehicle id="veh866" type="vType_car_43.75881173405247" route="route_east_to_west" depart="38.08" /><vehicle id="veh867" type="vType_car_17.71765715875454" route="route_north_to_west" depart="40.26" /><vehicle id="veh869" type="vType_car_24.339693043183424" route="route_east_to_south" depart="42.87" /><vehicle id="veh876" type="vType_car_16.44229750897811" route="route_north_to_west" depart="52.17" /><vehicle id="veh881" type="vType_car_26.87548495391659" route="route_south_to_east" depart="56.60" /></routes>