<?xml version='1.0' encoding='utf-8'?>
<routes><vType id="vType_car_14.623817260591979" accel="1.0" decel="5.0" sigma="0.0" length="4.5" maxSpeed="4.0621714612755495" /><vType id="vType_car_41.075213547594494" accel="1.0" decel="5.0" sigma="0.0" length="4.5" maxSpeed="11.40978154099847" /><vType id="vType_car_3.5248551069499268" accel="1.0" decel="5.0" sigma="0.0" length="4.5" maxSpeed="0.9791264185972018" /><vType id="vType_car_15.566354023581626" accel="1.0" decel="5.0" sigma="0.0" length="4.5" maxSpeed="4.3239872287726735" /><vType id="vType_car_18.436555179232254" accel="1.0" decel="5.0" sigma="0.0" length="4.5" maxSpeed="5.121265327564515" /><vType id="vType_car_10.150933491075373" accel="1.0" decel="5.0" sigma="0.0" length="4.5" maxSpeed="2.8197037475209368" /><vType id="vType_bus_13.555165622994794" accel="1.0" decel="5.0" sigma="0.0" length="13" maxSpeed="3.7653237841652203" /><vType id="vType_car_11.165830932691232" accel="1.0" decel="5.0" sigma="0.0" length="4.5" maxSpeed="3.1016197035253423" /><vType id="vType_car_5.405032858545524" accel="1.0" decel="5.0" sigma="0.0" length="4.5" maxSpeed="1.5013980162626455" /><vType id="vType_car_10.525456960189773" accel="1.0" decel="5.0" sigma="0.0" length="4.5" maxSpeed="2.923738044497159" /><vType id="vType_car_17.939438355577305" accel="1.0" decel="5.0" sigma="0.0" length="4.5" maxSpeed="4.983177320993696" /><vType id="vType_car_5.66308698396672" accel="1.0" decel="5.0" sigma="0.0" length="4.5" maxSpeed="1.5730797177685334" /><vType id="vType_car_4.175104196175878" accel="1.0" decel="5.0" sigma="0.0" length="4.5" maxSpeed="1.1597511656044106" /><vType id="vType_car_35.10320304512925" accel="1.0" decel="5.0" sigma="0.0" length="4.5" maxSpeed="9.750889734758124" /><vType id="vType_car_20.84788132740195" accel="1.0" decel="5.0" sigma="0.0" length="4.5" maxSpeed="5.791078146500541" /><vType id="vType_car_2.718082488120882" accel="1.0" decel="5.0" sigma="0.0" length="4.5" maxSpeed="0.7550229133669116" /><vType id="vType_car_36.31479239151539" accel="1.0" decel="5.0" sigma="0.0" length="4.5" maxSpeed="10.087442330976497" /><vType id="vType_car_42.92913835138172" accel="1.0" decel="5.0" sigma="0.0" length="4.5" maxSpeed="11.924760653161588" /><route id="route_north_to_east" edges="north_to_center center_to_east" /><route id="route_north_to_south" edges="north_to_center center_to_south" /><route id="route_north_to_west" edges="north_to_center center_to_west" /><route id="route_east_to_west" edges="east_to_center center_to_west" /><route id="route_east_to_south" edges="east_to_center center_to_south" /><route id="route_east_to_north" edges="east_to_center center_to_north" /><route id="route_south_to_west" edges="south_to_center center_to_west" /><route id="route_south_to_north" edges="south_to_center center_to_north" /><route id="route_south_to_east" edges="south_to_center center_to_east" /><route id="route_west_to_south" edges="west_to_center center_to_south" /><route id="route_west_to_north" edges="west_to_center center_to_north" /><route id="route_west_to_east" edges="west_to_center center_to_east" /><vehicle id="veh49" type="vType_car_14.623817260591979" route="route_north_to_south" depart="0.04" /><vehicle id="veh62" type="vType_car_15.566354023581626" route="route_east_to_south" depart="2.36" /><vehicle id="veh63" type="vType_car_18.436555179232254" route="route_east_to_south" depart="3.36" /><vehicle id="veh67" type="vType_car_10.150933491075373" route="route_west_to_north" depart="6.04" /><vehicle id="veh70" type="vType_bus_13.555165622994794" route="route_north_to_west" depart="9.26" /><vehicle id="veh73" type="vType_car_11.165830932691232" route="route_east_to_west" depart="16.30" /><vehicle id="veh81" type="vType_car_35.10320304512925" route="route_west_to_east" depart="33.35" /><vehicle id="veh82" type="vType_car_20.84788132740195" route="route_west_to_north" depart="36.60" /><vehicle id="veh85" type="vType_car_36.31479239151539" route="route_east_to_west" depart="48.61" /></routes>