<?xml version='1.0' encoding='utf-8'?>
<routes><vType id="vType_car_4.255495954229278" accel="1.0" decel="5.0" sigma="0.0" length="4.5" maxSpeed="1.1820822095081327" /><vType id="vType_car_12.362165134965876" accel="1.0" decel="5.0" sigma="0.0" length="4.5" maxSpeed="3.433934759712743" /><vType id="vType_car_4.172176480465598" accel="1.0" decel="5.0" sigma="0.0" length="4.5" maxSpeed="1.1589379112404439" /><vType id="vType_car_12.155074055938828" accel="1.0" decel="5.0" sigma="0.0" length="4.5" maxSpeed="3.3764094599830075" /><vType id="vType_car_8.874564133150468" accel="1.0" decel="5.0" sigma="0.0" length="4.5" maxSpeed="2.465156703652908" /><vType id="vType_car_12.660427819251767" accel="1.0" decel="5.0" sigma="0.0" length="4.5" maxSpeed="3.516785505347713" /><vType id="vType_car_53.13802692547471" accel="1.0" decel="5.0" sigma="0.0" length="4.5" maxSpeed="14.760563034854087" /><vType id="vType_car_13.910972126523838" accel="1.0" decel="5.0" sigma="0.0" length="4.5" maxSpeed="3.8641589240343994" /><vType id="vType_car_9.605734763164408" accel="1.0" decel="5.0" sigma="0.0" length="4.5" maxSpeed="2.6682596564345578" /><vType id="vType_car_9.509053066756977" accel="1.0" decel="5.0" sigma="0.0" length="4.5" maxSpeed="2.641403629654716" /><vType id="vType_car_36.65983752906434" accel="1.0" decel="5.0" sigma="0.0" length="4.5" maxSpeed="10.183288202517872" /><vType id="vType_car_57.39417050579207" accel="1.0" decel="5.0" sigma="0.0" length="4.5" maxSpeed="15.942825140497796" /><vType id="vType_car_11.46310005815697" accel="1.0" decel="5.0" sigma="0.0" length="4.5" maxSpeed="3.184194460599158" /><vType id="vType_car_27.96491256123792" accel="1.0" decel="5.0" sigma="0.0" length="4.5" maxSpeed="7.768031267010533" /><vType id="vType_car_38.62492683136369" accel="1.0" decel="5.0" sigma="0.0" length="4.5" maxSpeed="10.72914634204547" /><vType id="vType_car_3.918855381600422" accel="1.0" decel="5.0" sigma="0.0" length="4.5" maxSpeed="1.0885709393334506" /><vType id="vType_car_3.758261789324782" accel="1.0" decel="5.0" sigma="0.0" length="4.5" maxSpeed="1.0439616081457728" /><vType id="vType_car_11.524080675182812" accel="1.0" decel="5.0" sigma="0.0" length="4.5" maxSpeed="3.2011335208841145" /><vType id="vType_car_3.6815683981070295" accel="1.0" decel="5.0" sigma="0.0" length="4.5" maxSpeed="1.0226578883630637" /><vType id="vType_car_9.601584564624877" accel="1.0" decel="5.0" sigma="0.0" length="4.5" maxSpeed="2.66710682350691" /><vType id="vType_car_10.40860049080051" accel="1.0" decel="5.0" sigma="0.0" length="4.5" maxSpeed="2.8912779141112526" /><vType id="vType_car_4.010258008794551" accel="1.0" decel="5.0" sigma="0.0" length="4.5" maxSpeed="1.1139605579984864" /><vType id="vType_car_28.389343198479004" accel="1.0" decel="5.0" sigma="0.0" length="4.5" maxSpeed="7.885928666244167" /><vType id="vType_car_3.7669950690996696" accel="1.0" decel="5.0" sigma="0.0" length="4.5" maxSpeed="1.0463875191943526" /><vType id="vType_car_2.214495727862737" accel="1.0" decel="5.0" sigma="0.0" length="4.5" maxSpeed="0.6151377021840936" /><vType id="vType_car_13.206043810642093" accel="1.0" decel="5.0" sigma="0.0" length="4.5" maxSpeed="3.6683455029561367" /><vType id="vType_car_3.0448889611310044" accel="1.0" decel="5.0" sigma="0.0" length="4.5" maxSpeed="0.8458024892030568" /><vType id="vType_car_46.37201016421499" accel="1.0" decel="5.0" sigma="0.0" length="4.5" maxSpeed="12.881113934504164" /><vType id="vType_car_16.866104704479856" accel="1.0" decel="5.0" sigma="0.0" length="4.5" maxSpeed="4.685029084577738" /><vType id="vType_car_4.795051028717922" accel="1.0" decel="5.0" sigma="0.0" length="4.5" maxSpeed="1.3319586190883117" /><vType id="vType_bus_49.26663218523892" accel="1.0" decel="5.0" sigma="0.0" length="13" maxSpeed="13.68517560701081" /><vType id="vType_truck_8.787401075636652" accel="1.0" decel="5.0" sigma="0.0" length="8" maxSpeed="2.440944743232403" /><vType id="vType_car_19.401342951661253" accel="1.0" decel="5.0" sigma="0.0" length="4.5" maxSpeed="5.389261931017015" /><vType id="vType_car_12.543215854680978" accel="1.0" decel="5.0" sigma="0.0" length="4.5" maxSpeed="3.4842266263002717" /><vType id="vType_car_19.467111656118135" accel="1.0" decel="5.0" sigma="0.0" length="4.5" maxSpeed="5.407531015588371" /><vType id="vType_car_18.20362174468989" accel="1.0" decel="5.0" sigma="0.0" length="4.5" maxSpeed="5.056561595747191" /><vType id="vType_car_19.036960983750085" accel="1.0" decel="5.0" sigma="0.0" length="4.5" maxSpeed="5.288044717708357" /><vType id="vType_car_18.977138068619674" accel="1.0" decel="5.0" sigma="0.0" length="4.5" maxSpeed="5.271427241283242" /><vType id="vType_car_8.993567776368629" accel="1.0" decel="5.0" sigma="0.0" length="4.5" maxSpeed="2.498213271213508" /><vType id="vType_car_21.67434725474874" accel="1.0" decel="5.0" sigma="0.0" length="4.5" maxSpeed="6.0206520152079825" /><vType id="vType_car_19.28020979398418" accel="1.0" decel="5.0" sigma="0.0" length="4.5" maxSpeed="5.355613831662272" /><vType id="vType_car_53.1406192970285" accel="1.0" decel="5.0" sigma="0.0" length="4.5" maxSpeed="14.761283138063472" /><vType id="vType_car_46.14978722086161" accel="1.0" decel="5.0" sigma="0.0" length="4.5" maxSpeed="12.819385339128225" /><vType id="vType_car_20.03752334997423" accel="1.0" decel="5.0" sigma="0.0" length="4.5" maxSpeed="5.565978708326175" /><vType id="vType_car_4.6398731926209456" accel="1.0" decel="5.0" sigma="0.0" length="4.5" maxSpeed="1.2888536646169293" /><vType id="vType_car_13.946923362731134" accel="1.0" decel="5.0" sigma="0.0" length="4.5" maxSpeed="3.874145378536426" /><vType id="vType_car_13.07538965041972" accel="1.0" decel="5.0" sigma="0.0" length="4.5" maxSpeed="3.6320526806721443" /><vType id="vType_car_4.161412659243512" accel="1.0" decel="5.0" sigma="0.0" length="4.5" maxSpeed="1.1559479609009755" /><vType id="vType_car_14.807349865984747" accel="1.0" decel="5.0" sigma="0.0" length="4.5" maxSpeed="4.113152740551318" /><vType id="vType_car_4.2985738895173515" accel="1.0" decel="5.0" sigma="0.0" length="4.5" maxSpeed="1.1940483026437088" /><vType id="vType_car_12.319021895322217" accel="1.0" decel="5.0" sigma="0.0" length="4.5" maxSpeed="3.4219505264783936" /><vType id="vType_car_4.4335513454601765" accel="1.0" decel="5.0" sigma="0.0" length="4.5" maxSpeed="1.2315420404056046" /><vType id="vType_car_8.382171856733502" accel="1.0" decel="5.0" sigma="0.0" length="4.5" maxSpeed="2.3283810713148614" /><vType id="vType_car_16.86367707449546" accel="1.0" decel="5.0" sigma="0.0" length="4.5" maxSpeed="4.6843547429154055" /><vType id="vType_car_17.78500894556647" accel="1.0" decel="5.0" sigma="0.0" length="4.5" maxSpeed="4.940280262657353" /><vType id="vType_car_2.1571877556232706" accel="1.0" decel="5.0" sigma="0.0" length="4.5" maxSpeed="0.5992188210064641" /><vType id="vType_car_23.783783765124408" accel="1.0" decel="5.0" sigma="0.0" length="4.5" maxSpeed="6.606606601423446" /><vType id="vType_car_20.761095421363567" accel="1.0" decel="5.0" sigma="0.0" length="4.5" maxSpeed="5.766970950378768" /><vType id="vType_car_13.404654429841381" accel="1.0" decel="5.0" sigma="0.0" length="4.5" maxSpeed="3.7235151194003837" /><vType id="vType_car_23.611521231448833" accel="1.0" decel="5.0" sigma="0.0" length="4.5" maxSpeed="6.558755897624676" /><vType id="vType_truck_27.232606632834713" accel="1.0" decel="5.0" sigma="0.0" length="8" maxSpeed="7.564612953565198" /><vType id="vType_car_14.282045136743578" accel="1.0" decel="5.0" sigma="0.0" length="4.5" maxSpeed="3.9672347602065496" /><vType id="vType_car_35.05748259495923" accel="1.0" decel="5.0" sigma="0.0" length="4.5" maxSpeed="9.738189609710897" /><vType id="vType_car_18.373648260384023" accel="1.0" decel="5.0" sigma="0.0" length="4.5" maxSpeed="5.1037911834400065" /><vType id="vType_car_38.40725128240056" accel="1.0" decel="5.0" sigma="0.0" length="4.5" maxSpeed="10.668680911777933" /><vType id="vType_car_3.1293249764433546" accel="1.0" decel="5.0" sigma="0.0" length="4.5" maxSpeed="0.8692569379009318" /><vType id="vType_car_31.882277657619127" accel="1.0" decel="5.0" sigma="0.0" length="4.5" maxSpeed="8.856188238227535" /><vType id="vType_car_44.41054629844229" accel="1.0" decel="5.0" sigma="0.0" length="4.5" maxSpeed="12.336262860678413" /><vType id="vType_car_3.5237321294047885" accel="1.0" decel="5.0" sigma="0.0" length="4.5" maxSpeed="0.978814480390219" /><vType id="vType_car_15.130449203983547" accel="1.0" decel="5.0" sigma="0.0" length="4.5" maxSpeed="4.202902556662096" /><vType id="vType_car_5.692799030057257" accel="1.0" decel="5.0" sigma="0.0" length="4.5" maxSpeed="1.5813330639047936" /><vType id="vType_car_39.65287007134409" accel="1.0" decel="5.0" sigma="0.0" length="4.5" maxSpeed="11.014686130928913" /><vType id="vType_car_4.854913517993246" accel="1.0" decel="5.0" sigma="0.0" length="4.5" maxSpeed="1.3485870883314572" /><vType id="vType_car_3.0539011788174832" accel="1.0" decel="5.0" sigma="0.0" length="4.5" maxSpeed="0.8483058830048564" /><vType id="vType_car_7.664513228110616" accel="1.0" decel="5.0" sigma="0.0" length="4.5" maxSpeed="2.1290314522529488" /><vType id="vType_car_3.557773162080443" accel="1.0" decel="5.0" sigma="0.0" length="4.5" maxSpeed="0.9882703228001231" /><vType id="vType_car_17.492558194904976" accel="1.0" decel="5.0" sigma="0.0" length="4.5" maxSpeed="4.85904394302916" /><vType id="vType_car_44.16477113498019" accel="1.0" decel="5.0" sigma="0.0" length="4.5" maxSpeed="12.267991981938941" /><vType id="vType_car_14.391455102049115" accel="1.0" decel="5.0" sigma="0.0" length="4.5" maxSpeed="3.997626417235865" /><vType id="vType_car_17.724087147638727" accel="1.0" decel="5.0" sigma="0.0" length="4.5" maxSpeed="4.923357541010757" /><vType id="vType_car_11.719917455409945" accel="1.0" decel="5.0" sigma="0.0" length="4.5" maxSpeed="3.255532626502762" /><vType id="vType_car_19.868730122420512" accel="1.0" decel="5.0" sigma="0.0" length="4.5" maxSpeed="5.519091700672364" /><vType id="vType_car_26.674774276876352" accel="1.0" decel="5.0" sigma="0.0" length="4.5" maxSpeed="7.409659521354542" /><vType id="vType_car_2.5117025752510656" accel="1.0" decel="5.0" sigma="0.0" length="4.5" maxSpeed="0.6976951597919626" /><vType id="vType_car_31.104674226827147" accel="1.0" decel="5.0" sigma="0.0" length="4.5" maxSpeed="8.640187285229763" /><vType id="vType_car_26.321001138438113" accel="1.0" decel="5.0" sigma="0.0" length="4.5" maxSpeed="7.3113892051216975" /><vType id="vType_car_8.621692377362017" accel="1.0" decel="5.0" sigma="0.0" length="4.5" maxSpeed="2.394914549267227" /><vType id="vType_car_34.825642208806144" accel="1.0" decel="5.0" sigma="0.0" length="4.5" maxSpeed="9.673789502446152" /><vType id="vType_car_43.73176866548061" accel="1.0" decel="5.0" sigma="0.0" length="4.5" maxSpeed="12.147713518189057" /><vType id="vType_car_36.34911654374383" accel="1.0" decel="5.0" sigma="0.0" length="4.5" maxSpeed="10.09697681770662" /><vType id="vType_car_15.758609151698387" accel="1.0" decel="5.0" sigma="0.0" length="4.5" maxSpeed="4.37739143102733" /><vType id="vType_car_22.90505387070858" accel="1.0" decel="5.0" sigma="0.0" length="4.5" maxSpeed="6.362514964085717" /><vType id="vType_car_8.88041299620218" accel="1.0" decel="5.0" sigma="0.0" length="4.5" maxSpeed="2.466781387833939" /><vType id="vType_car_9.484672671561048" accel="1.0" decel="5.0" sigma="0.0" length="4.5" maxSpeed="2.634631297655847" /><vType id="vType_car_36.10724701306547" accel="1.0" decel="5.0" sigma="0.0" length="4.5" maxSpeed="10.02979083696263" /><vType id="vType_car_51.353829323150606" accel="1.0" decel="5.0" sigma="0.0" length="4.5" maxSpeed="14.264952589764057" /><vType id="vType_car_37.87031078727642" accel="1.0" decel="5.0" sigma="0.0" length="4.5" maxSpeed="10.519530774243451" /><vType id="vType_car_3.95117103206478" accel="1.0" decel="5.0" sigma="0.0" length="4.5" maxSpeed="1.0975475089068834" /><vType id="vType_car_42.561378280491745" accel="1.0" decel="5.0" sigma="0.0" length="4.5" maxSpeed="11.822605077914373" /><vType id="vType_car_49.000279462486255" accel="1.0" decel="5.0" sigma="0.0" length="4.5" maxSpeed="13.611188739579514" /><vType id="vType_car_28.57453452095041" accel="1.0" decel="5.0" sigma="0.0" length="4.5" maxSpeed="7.937370700264003" /><vType id="vType_car_14.423976485795725" accel="1.0" decel="5.0" sigma="0.0" length="4.5" maxSpeed="4.006660134943257" /><vType id="vType_car_41.540625146401595" accel="1.0" decel="5.0" sigma="0.0" length="4.5" maxSpeed="11.539062540667109" /><vType id="vType_car_44.23549767314329" accel="1.0" decel="5.0" sigma="0.0" length="4.5" maxSpeed="12.287638242539803" /><vType id="vType_car_3.9870454944693963" accel="1.0" decel="5.0" sigma="0.0" length="4.5" maxSpeed="1.10751263735261" /><vType id="vType_car_39.38256405208129" accel="1.0" decel="5.0" sigma="0.0" length="4.5" maxSpeed="10.939601125578136" /><vType id="vType_car_6.015387013191827" accel="1.0" decel="5.0" sigma="0.0" length="4.5" maxSpeed="1.6709408369977297" /><vType id="vType_car_60.559820078635845" accel="1.0" decel="5.0" sigma="0.0" length="4.5" maxSpeed="16.822172244065513" /><vType id="vType_car_29.62462002883228" accel="1.0" decel="5.0" sigma="0.0" length="4.5" maxSpeed="8.229061119120077" /><vType id="vType_car_37.746896618150885" accel="1.0" decel="5.0" sigma="0.0" length="4.5" maxSpeed="10.485249060597468" /><vType id="vType_car_38.54676947698155" accel="1.0" decel="5.0" sigma="0.0" length="4.5" maxSpeed="10.707435965828209" /><vType id="vType_car_19.899391422389805" accel="1.0" decel="5.0" sigma="0.0" length="4.5" maxSpeed="5.527608728441613" /><vType id="vType_car_12.290208073412298" accel="1.0" decel="5.0" sigma="0.0" length="4.5" maxSpeed="3.4139466870589716" /><vType id="vType_car_2.859392275886562" accel="1.0" decel="5.0" sigma="0.0" length="4.5" maxSpeed="0.7942756321907117" /><vType id="vType_car_21.568764895880378" accel="1.0" decel="5.0" sigma="0.0" length="4.5" maxSpeed="5.991323582188993" /><vType id="vType_car_10.153013732840444" accel="1.0" decel="5.0" sigma="0.0" length="4.5" maxSpeed="2.8202815924556788" /><vType id="vType_truck_83.37725524419832" accel="1.0" decel="5.0" sigma="0.0" length="8" maxSpeed="23.16034867894398" /><vType id="vType_car_7.958196730490643" accel="1.0" decel="5.0" sigma="0.0" length="4.5" maxSpeed="2.2106102029140673" /><vType id="vType_truck_94.01194990597088" accel="1.0" decel="5.0" sigma="0.0" length="8" maxSpeed="26.114430529436355" /><vType id="vType_car_2.7406805450926135" accel="1.0" decel="5.0" sigma="0.0" length="4.5" maxSpeed="0.7613001514146148" /><vType id="vType_car_77.81753840911914" accel="1.0" decel="5.0" sigma="0.0" length="4.5" maxSpeed="21.615982891421982" /><vType id="vType_car_12.042563701098361" accel="1.0" decel="5.0" sigma="0.0" length="4.5" maxSpeed="3.3451565836384334" /><vType id="vType_truck_15.61850191119713" accel="1.0" decel="5.0" sigma="0.0" length="8" maxSpeed="4.338472753110314" /><vType id="vType_car_18.135823430322883" accel="1.0" decel="5.0" sigma="0.0" length="4.5" maxSpeed="5.037728730645245" /><vType id="vType_car_69.908941275781" accel="1.0" decel="5.0" sigma="0.0" length="4.5" maxSpeed="19.41915035438361" /><vType id="vType_car_50.48775612816233" accel="1.0" decel="5.0" sigma="0.0" length="4.5" maxSpeed="14.024376702267315" /><vType id="vType_car_62.508898875735625" accel="1.0" decel="5.0" sigma="0.0" length="4.5" maxSpeed="17.363583021037673" /><vType id="vType_car_42.36663411619575" accel="1.0" decel="5.0" sigma="0.0" length="4.5" maxSpeed="11.768509476721041" /><vType id="vType_car_15.7770769535612" accel="1.0" decel="5.0" sigma="0.0" length="4.5" maxSpeed="4.3825213759892225" /><vType id="vType_car_47.744426053278936" accel="1.0" decel="5.0" sigma="0.0" length="4.5" maxSpeed="13.26234057035526" /><vType id="vType_car_55.40711737367292" accel="1.0" decel="5.0" sigma="0.0" length="4.5" maxSpeed="15.390865937131366" /><vType id="vType_car_15.916665195527095" accel="1.0" decel="5.0" sigma="0.0" length="4.5" maxSpeed="4.421295887646415" /><vType id="vType_car_62.180624227225216" accel="1.0" decel="5.0" sigma="0.0" length="4.5" maxSpeed="17.27239561867367" /><vType id="vType_car_74.62434738162078" accel="1.0" decel="5.0" sigma="0.0" length="4.5" maxSpeed="20.72898538378355" /><vType id="vType_car_48.01346609210343" accel="1.0" decel="5.0" sigma="0.0" length="4.5" maxSpeed="13.337073914473175" /><vType id="vType_car_21.63247158507841" accel="1.0" decel="5.0" sigma="0.0" length="4.5" maxSpeed="6.009019884744003" /><vType id="vType_car_41.26367493673616" accel="1.0" decel="5.0" sigma="0.0" length="4.5" maxSpeed="11.462131926871155" /><vType id="vType_car_57.45943219635725" accel="1.0" decel="5.0" sigma="0.0" length="4.5" maxSpeed="15.960953387877012" /><vType id="vType_car_35.08670714376474" accel="1.0" decel="5.0" sigma="0.0" length="4.5" maxSpeed="9.74630753993465" /><vType id="vType_car_4.253520948489433" accel="1.0" decel="5.0" sigma="0.0" length="4.5" maxSpeed="1.1815335968026202" /><vType id="vType_car_40.96928938310897" accel="1.0" decel="5.0" sigma="0.0" length="4.5" maxSpeed="11.380358161974714" /><vType id="vType_car_59.57189173016899" accel="1.0" decel="5.0" sigma="0.0" length="4.5" maxSpeed="16.54774770282472" /><vType id="vType_car_12.20714273530206" accel="1.0" decel="5.0" sigma="0.0" length="4.5" maxSpeed="3.39087298202835" /><vType id="vType_car_46.43456938893145" accel="1.0" decel="5.0" sigma="0.0" length="4.5" maxSpeed="12.898491496925402" /><vType id="vType_car_29.57863461288168" accel="1.0" decel="5.0" sigma="0.0" length="4.5" maxSpeed="8.216287392467132" /><vType id="vType_car_39.83796833115553" accel="1.0" decel="5.0" sigma="0.0" length="4.5" maxSpeed="11.06610231420987" /><vType id="vType_car_33.554641322321665" accel="1.0" decel="5.0" sigma="0.0" length="4.5" maxSpeed="9.320733700644906" /><vType id="vType_car_48.94751941318751" accel="1.0" decel="5.0" sigma="0.0" length="4.5" maxSpeed="13.596533170329863" /><vType id="vType_car_12.337170878214014" accel="1.0" decel="5.0" sigma="0.0" length="4.5" maxSpeed="3.426991910615004" /><vType id="vType_car_49.15819745914355" accel="1.0" decel="5.0" sigma="0.0" length="4.5" maxSpeed="13.655054849762097" /><vType id="vType_car_4.146645850351549" accel="1.0" decel="5.0" sigma="0.0" length="4.5" maxSpeed="1.151846069542097" /><vType id="vType_car_3.885140552933485" accel="1.0" decel="5.0" sigma="0.0" length="4.5" maxSpeed="1.0792057091481904" /><vType id="vType_car_18.90568297517073" accel="1.0" decel="5.0" sigma="0.0" length="4.5" maxSpeed="5.2515786042140915" /><vType id="vType_car_17.634379210772636" accel="1.0" decel="5.0" sigma="0.0" length="4.5" maxSpeed="4.898438669659066" /><vType id="vType_car_43.75881173405247" accel="1.0" decel="5.0" sigma="0.0" length="4.5" maxSpeed="12.155225481681242" /><vType id="vType_car_17.71765715875454" accel="1.0" decel="5.0" sigma="0.0" length="4.5" maxSpeed="4.921571432987372" /><vType id="vType_car_4.4737783481758" accel="1.0" decel="5.0" sigma="0.0" length="4.5" maxSpeed="1.242716207826611" /><vType id="vType_car_24.339693043183424" accel="1.0" decel="5.0" sigma="0.0" length="4.5" maxSpeed="6.761025845328729" /><vType id="vType_car_7.753363713125936" accel="1.0" decel="5.0" sigma="0.0" length="4.5" maxSpeed="2.153712142534982" /><vType id="vType_car_17.44670850083968" accel="1.0" decel="5.0" sigma="0.0" length="4.5" maxSpeed="4.846307916899911" /><vType id="vType_car_9.206979987405566" accel="1.0" decel="5.0" sigma="0.0" length="4.5" maxSpeed="2.5574944409459905" /><vType id="vType_car_4.1685568454510395" accel="1.0" decel="5.0" sigma="0.0" length="4.5" maxSpeed="1.1579324570697331" /><vType id="vType_car_16.509506124429894" accel="1.0" decel="5.0" sigma="0.0" length="4.5" maxSpeed="4.585973923452748" /><vType id="vType_car_13.60819390932077" accel="1.0" decel="5.0" sigma="0.0" length="4.5" maxSpeed="3.7800538637002137" /><vType id="vType_car_19.23521298273546" accel="1.0" decel="5.0" sigma="0.0" length="4.5" maxSpeed="5.343114717426517" /><vType id="vType_car_22.036478461951443" accel="1.0" decel="5.0" sigma="0.0" length="4.5" maxSpeed="6.121244017208734" /><vType id="vType_car_3.751470627035129" accel="1.0" decel="5.0" sigma="0.0" length="4.5" maxSpeed="1.0420751741764247" /><vType id="vType_car_30.27863991058251" accel="1.0" decel="5.0" sigma="0.0" length="4.5" maxSpeed="8.410733308495141" /><vType id="vType_car_39.005280305491034" accel="1.0" decel="5.0" sigma="0.0" length="4.5" maxSpeed="10.834800084858621" /><vType id="vType_car_37.921233342745325" accel="1.0" decel="5.0" sigma="0.0" length="4.5" maxSpeed="10.533675928540367" /><vType id="vType_car_35.08495439483902" accel="1.0" decel="5.0" sigma="0.0" length="4.5" maxSpeed="9.745820665233062" /><vType id="vType_car_28.43442718446136" accel="1.0" decel="5.0" sigma="0.0" length="4.5" maxSpeed="7.898451995683711" /><vType id="vType_car_3.61495573179037" accel="1.0" decel="5.0" sigma="0.0" length="4.5" maxSpeed="1.0041543699417694" /><vType id="vType_car_42.62785749428879" accel="1.0" decel="5.0" sigma="0.0" length="4.5" maxSpeed="11.84107152619133" /><vType id="vType_car_14.743972098013774" accel="1.0" decel="5.0" sigma="0.0" length="4.5" maxSpeed="4.095547805003826" /><vType id="vType_car_6.495648962010076" accel="1.0" decel="5.0" sigma="0.0" length="4.5" maxSpeed="1.8043469338916878" /><vType id="vType_car_15.302327358019161" accel="1.0" decel="5.0" sigma="0.0" length="4.5" maxSpeed="4.250646488338655" /><vType id="vType_car_3.523732129404789" accel="1.0" decel="5.0" sigma="0.0" length="4.5" maxSpeed="0.9788144803902191" /><vType id="vType_car_12.091548628310916" accel="1.0" decel="5.0" sigma="0.0" length="4.5" maxSpeed="3.3587635078641433" /><vType id="vType_car_19.1305227412724" accel="1.0" decel="5.0" sigma="0.0" length="4.5" maxSpeed="5.314034094797889" /><vType id="vType_car_6.068877612708497" accel="1.0" decel="5.0" sigma="0.0" length="4.5" maxSpeed="1.6857993368634714" /><vType id="vType_car_4.303107073833307" accel="1.0" decel="5.0" sigma="0.0" length="4.5" maxSpeed="1.195307520509252" /><vType id="vType_car_0.503390304200684" accel="1.0" decel="5.0" sigma="0.0" length="4.5" maxSpeed="0.13983064005574555" /><vType id="vType_car_3.4996394117530802" accel="1.0" decel="5.0" sigma="0.0" length="4.5" maxSpeed="0.9721220588203" /><vType id="vType_car_15.336911739714802" accel="1.0" decel="5.0" sigma="0.0" length="4.5" maxSpeed="4.260253261031889" /><vType id="vType_car_4.166206431582657" accel="1.0" decel="5.0" sigma="0.0" length="4.5" maxSpeed="1.1572795643285156" /><vType id="vType_car_52.013564019727454" accel="1.0" decel="5.0" sigma="0.0" length="4.5" maxSpeed="14.44821222770207" /><vType id="vType_car_24.440625399465908" accel="1.0" decel="5.0" sigma="0.0" length="4.5" maxSpeed="6.789062610962752" /><vType id="vType_car_11.721674765016617" accel="1.0" decel="5.0" sigma="0.0" length="4.5" maxSpeed="3.2560207680601714" /><vType id="vType_car_16.297643704488408" accel="1.0" decel="5.0" sigma="0.0" length="4.5" maxSpeed="4.52712325124678" /><vType id="vType_car_3.663794899094863" accel="1.0" decel="5.0" sigma="0.0" length="4.5" maxSpeed="1.0177208053041285" /><vType id="vType_car_18.455535516704128" accel="1.0" decel="5.0" sigma="0.0" length="4.5" maxSpeed="5.126537643528924" /><vType id="vType_car_24.674213467187265" accel="1.0" decel="5.0" sigma="0.0" length="4.5" maxSpeed="6.853948185329796" /><vType id="vType_car_25.395981840067403" accel="1.0" decel="5.0" sigma="0.0" length="4.5" maxSpeed="7.0544394000187225" /><vType id="vType_car_24.8334459103625" accel="1.0" decel="5.0" sigma="0.0" length="4.5" maxSpeed="6.898179419545139" /><vType id="vType_car_3.1782681951494176" accel="1.0" decel="5.0" sigma="0.0" length="4.5" maxSpeed="0.8828522764303938" /><vType id="vType_car_31.248871657797572" accel="1.0" decel="5.0" sigma="0.0" length="4.5" maxSpeed="8.680242127165991" /><vType id="vType_car_25.826467530449683" accel="1.0" decel="5.0" sigma="0.0" length="4.5" maxSpeed="7.174018758458245" /><vType id="vType_car_3.451119661419002" accel="1.0" decel="5.0" sigma="0.0" length="4.5" maxSpeed="0.9586443503941672" /><vType id="vType_car_3.1909336366646297" accel="1.0" decel="5.0" sigma="0.0" length="4.5" maxSpeed="0.8863704546290638" /><vType id="vType_car_46.554138162133334" accel="1.0" decel="5.0" sigma="0.0" length="4.5" maxSpeed="12.931705045037036" /><vType id="vType_car_4.698309505873051" accel="1.0" decel="5.0" sigma="0.0" length="4.5" maxSpeed="1.3050859738536253" /><vType id="vType_car_33.89458793081225" accel="1.0" decel="5.0" sigma="0.0" length="4.5" maxSpeed="9.415163314114514" /><vType id="vType_car_4.900898196290902" accel="1.0" decel="5.0" sigma="0.0" length="4.5" maxSpeed="1.3613606100808062" /><vType id="vType_car_21.872464234111767" accel="1.0" decel="5.0" sigma="0.0" length="4.5" maxSpeed="6.075684509475491" /><vType id="vType_car_35.60078929996559" accel="1.0" decel="5.0" sigma="0.0" length="4.5" maxSpeed="9.889108138879331" /><vType id="vType_car_20.289454788225047" accel="1.0" decel="5.0" sigma="0.0" length="4.5" maxSpeed="5.635959663395846" /><vType id="vType_car_28.450345099623327" accel="1.0" decel="5.0" sigma="0.0" length="4.5" maxSpeed="7.902873638784257" /><vType id="vType_car_3.4962513633563246" accel="1.0" decel="5.0" sigma="0.0" length="4.5" maxSpeed="0.9711809342656457" /><vType id="vType_car_34.909702883994235" accel="1.0" decel="5.0" sigma="0.0" length="4.5" maxSpeed="9.697139689998398" /><vType id="vType_car_52.96040544856676" accel="1.0" decel="5.0" sigma="0.0" length="4.5" maxSpeed="14.711223735712988" /><vType id="vType_car_4.020325343237291" accel="1.0" decel="5.0" sigma="0.0" length="4.5" maxSpeed="1.1167570397881363" /><vType id="vType_car_3.35285350611654" accel="1.0" decel="5.0" sigma="0.0" length="4.5" maxSpeed="0.9313481961434833" /><vType id="vType_car_35.664670168272984" accel="1.0" decel="5.0" sigma="0.0" length="4.5" maxSpeed="9.906852824520273" /><vType id="vType_car_3.621871059355809" accel="1.0" decel="5.0" sigma="0.0" length="4.5" maxSpeed="1.0060752942655025" /><vType id="vType_car_20.252088382916465" accel="1.0" decel="5.0" sigma="0.0" length="4.5" maxSpeed="5.6255801063656845" /><vType id="vType_car_47.10614365399448" accel="1.0" decel="5.0" sigma="0.0" length="4.5" maxSpeed="13.085039903887354" /><vType id="vType_car_18.879883719374362" accel="1.0" decel="5.0" sigma="0.0" length="4.5" maxSpeed="5.244412144270656" /><vType id="vType_car_34.640087741397004" accel="1.0" decel="5.0" sigma="0.0" length="4.5" maxSpeed="9.6222465948325" /><vType id="vType_car_3.9271329324650868" accel="1.0" decel="5.0" sigma="0.0" length="4.5" maxSpeed="1.0908702590180797" /><vType id="vType_car_3.342310449275937" accel="1.0" decel="5.0" sigma="0.0" length="4.5" maxSpeed="0.9284195692433157" /><vType id="vType_car_10.625906093519713" accel="1.0" decel="5.0" sigma="0.0" length="4.5" maxSpeed="2.951640581533254" /><vType id="vType_car_35.918247652483394" accel="1.0" decel="5.0" sigma="0.0" length="4.5" maxSpeed="9.97729101457872" /><vType id="vType_car_50.117192746535906" accel="1.0" decel="5.0" sigma="0.0" length="4.5" maxSpeed="13.921442429593307" /><vType id="vType_car_23.564262881511645" accel="1.0" decel="5.0" sigma="0.0" length="4.5" maxSpeed="6.545628578197679" /><vType id="vType_car_10.315910671042145" accel="1.0" decel="5.0" sigma="0.0" length="4.5" maxSpeed="2.8655307419561513" /><vType id="vType_car_10.890110396163477" accel="1.0" decel="5.0" sigma="0.0" length="4.5" maxSpeed="3.0250306656009656" /><vType id="vType_car_4.5936453895348555" accel="1.0" decel="5.0" sigma="0.0" length="4.5" maxSpeed="1.2760126082041265" /><vType id="vType_car_3.423621608455887" accel="1.0" decel="5.0" sigma="0.0" length="4.5" maxSpeed="0.9510060023488575" /><vType id="vType_car_11.051968680488551" accel="1.0" decel="5.0" sigma="0.0" length="4.5" maxSpeed="3.0699913001357086" /><vType id="vType_car_11.160626451872583" accel="1.0" decel="5.0" sigma="0.0" length="4.5" maxSpeed="3.100174014409051" /><vType id="vType_car_31.013633642522116" accel="1.0" decel="5.0" sigma="0.0" length="4.5" maxSpeed="8.614898234033921" /><vType id="vType_car_4.560002804889319" accel="1.0" decel="5.0" sigma="0.0" length="4.5" maxSpeed="1.2666674458025884" /><vType id="vType_car_9.921358042542764" accel="1.0" decel="5.0" sigma="0.0" length="4.5" maxSpeed="2.755932789595212" /><vType id="vType_car_3.505509639521831" accel="1.0" decel="5.0" sigma="0.0" length="4.5" maxSpeed="0.973752677644953" /><vType id="vType_car_10.826474044464724" accel="1.0" decel="5.0" sigma="0.0" length="4.5" maxSpeed="3.0073539012402013" /><vType id="vType_car_43.66178758406003" accel="1.0" decel="5.0" sigma="0.0" length="4.5" maxSpeed="12.128274328905563" /><vType id="vType_car_12.88753565126682" accel="1.0" decel="5.0" sigma="0.0" length="4.5" maxSpeed="3.579871014240783" /><vType id="vType_car_38.75122772053323" accel="1.0" decel="5.0" sigma="0.0" length="4.5" maxSpeed="10.764229922370342" /><vType id="vType_car_9.71000016092326" accel="1.0" decel="5.0" sigma="0.0" length="4.5" maxSpeed="2.6972222669231276" /><vType id="vType_car_3.354700492421317" accel="1.0" decel="5.0" sigma="0.0" length="4.5" maxSpeed="0.9318612478948102" /><vType id="vType_car_6.3506944454028895" accel="1.0" decel="5.0" sigma="0.0" length="4.5" maxSpeed="1.7640817903896915" /><vType id="vType_car_14.326493553677672" accel="1.0" decel="5.0" sigma="0.0" length="4.5" maxSpeed="3.979581542688242" /><vType id="vType_car_3.230140220440146" accel="1.0" decel="5.0" sigma="0.0" length="4.5" maxSpeed="0.897261172344485" /><vType id="vType_car_9.601623420803511" accel="1.0" decel="5.0" sigma="0.0" length="4.5" maxSpeed="2.6671176168898643" /><vType id="vType_car_43.36652616729667" accel="1.0" decel="5.0" sigma="0.0" length="4.5" maxSpeed="12.04625726869352" /><vType id="vType_car_2.818985703523831" accel="1.0" decel="5.0" sigma="0.0" length="4.5" maxSpeed="0.7830515843121753" /><vType id="vType_car_44.968240197814794" accel="1.0" decel="5.0" sigma="0.0" length="4.5" max