<?xml version='1.0' encoding='utf-8'?>
<routes><vType id="vType_car_85.93367047859664" accel="1.0" decel="5.0" sigma="0.0" length="4.5" maxSpeed="23.8704640218324" /><vType id="vType_car_12.54711292255971" accel="1.0" decel="5.0" sigma="0.0" length="4.5" maxSpeed="3.485309145155475" /><vType id="vType_car_2.633161675478983" accel="1.0" decel="5.0" sigma="0.0" length="4.5" maxSpeed="0.7314337987441619" /><vType id="vType_car_9.397780399047733" accel="1.0" decel="5.0" sigma="0.0" length="4.5" maxSpeed="2.610494555291037" /><vType id="vType_car_40.34499289665272" accel="1.0" decel="5.0" sigma="0.0" length="4.5" maxSpeed="11.206942471292422" /><vType id="vType_car_4.169263905537005" accel="1.0" decel="5.0" sigma="0.0" length="4.5" maxSpeed="1.1581288626491681" /><vType id="vType_car_13.569050485111557" accel="1.0" decel="5.0" sigma="0.0" length="4.5" maxSpeed="3.7691806903087657" /><vType id="vType_car_11.55282548836536" accel="1.0" decel="5.0" sigma="0.0" length="4.5" maxSpeed="3.2091181912125997" /><vType id="vType_car_13.360112872945127" accel="1.0" decel="5.0" sigma="0.0" length="4.5" maxSpeed="3.7111424647069797" /><vType id="vType_car_20.68441338554981" accel="1.0" decel="5.0" sigma="0.0" length="4.5" maxSpeed="5.7456703848749475" /><vType id="vType_car_26.139143061602272" accel="1.0" decel="5.0" sigma="0.0" length="4.5" maxSpeed="7.260873072667298" /><vType id="vType_car_24.927207254593373" accel="1.0" decel="5.0" sigma="0.0" length="4.5" maxSpeed="6.9242242373870475" /><vType id="vType_car_33.259587588107756" accel="1.0" decel="5.0" sigma="0.0" length="4.5" maxSpeed="9.238774330029932" /><vType id="vType_car_12.42731376127061" accel="1.0" decel="5.0" sigma="0.0" length="4.5" maxSpeed="3.452031600352947" /><vType id="vType_car_7.71183293095333" accel="1.0" decel="5.0" sigma="0.0" length="4.5" maxSpeed="2.1421758141537026" /><vType id="vType_car_33.23118028142591" accel="1.0" decel="5.0" sigma="0.0" length="4.5" maxSpeed="9.230883411507197" /><vType id="vType_car_24.249841732287607" accel="1.0" decel="5.0" sigma="0.0" length="4.5" maxSpeed="6.736067147857669" /><vType id="vType_car_16.673213575211385" accel="1.0" decel="5.0" sigma="0.0" length="4.5" maxSpeed="4.631448215336496" /><vType id="vType_car_21.959522284569186" accel="1.0" decel="5.0" sigma="0.0" length="4.5" maxSpeed="6.099867301269218" /><vType id="vType_car_7.596974226993765" accel="1.0" decel="5.0" sigma="0.0" length="4.5" maxSpeed="2.110270618609379" /><vType id="vType_car_17.919091098377333" accel="1.0" decel="5.0" sigma="0.0" length="4.5" maxSpeed="4.977525305104814" /><vType id="vType_car_22.231183700535265" accel="1.0" decel="5.0" sigma="0.0" length="4.5" maxSpeed="6.17532880570424" /><vType id="vType_car_8.32968747548458" accel="1.0" decel="5.0" sigma="0.0" length="4.5" maxSpeed="2.313802076523494" /><vType id="vType_car_31.571692102304894" accel="1.0" decel="5.0" sigma="0.0" length="4.5" maxSpeed="8.769914472862471" /><vType id="vType_car_3.1493315383854803" accel="1.0" decel="5.0" sigma="0.0" length="4.5" maxSpeed="0.874814316218189" /><vType id="vType_car_16.6945572717983" accel="1.0" decel="5.0" sigma="0.0" length="4.5" maxSpeed="4.637377019943972" /><vType id="vType_car_22.929259956892984" accel="1.0" decel="5.0" sigma="0.0" length="4.5" maxSpeed="6.369238876914718" /><vType id="vType_car_3.7791978460625764" accel="1.0" decel="5.0" sigma="0.0" length="4.5" maxSpeed="1.0497771794618267" /><vType id="vType_car_4.2178911375202786" accel="1.0" decel="5.0" sigma="0.0" length="4.5" maxSpeed="1.1716364270889663" /><vType id="vType_car_4.245779844211352" accel="1.0" decel="5.0" sigma="0.0" length="4.5" maxSpeed="1.179383290058709" /><vType id="vType_car_9.441057352888892" accel="1.0" decel="5.0" sigma="0.0" length="4.5" maxSpeed="2.6225159313580257" /><vType id="vType_car_32.21028602103821" accel="1.0" decel="5.0" sigma="0.0" length="4.5" maxSpeed="8.947301672510614" /><vType id="vType_car_9.138844736517903" accel="1.0" decel="5.0" sigma="0.0" length="4.5" maxSpeed="2.538567982366084" /><vType id="vType_car_31.451940843436528" accel="1.0" decel="5.0" sigma="0.0" length="4.5" maxSpeed="8.736650234287925" /><route id="route_north_to_east" edges="north_to_center center_to_east" /><route id="route_north_to_south" edges="north_to_center center_to_south" /><route id="route_north_to_west" edges="north_to_center center_to_west" /><route id="route_east_to_west" edges="east_to_center center_to_west" /><route id="route_east_to_south" edges="east_to_center center_to_south" /><route id="route_east_to_north" edges="east_to_center center_to_north" /><route id="route_south_to_west" edges="south_to_center center_to_west" /><route id="route_south_to_north" edges="south_to_center center_to_north" /><route id="route_south_to_east" edges="south_to_center center_to_east" /><route id="route_west_to_south" edges="west_to_center center_to_south" /><route id="route_west_to_north" edges="west_to_center center_to_north" /><route id="route_west_to_east" edges="west_to_center center_to_east" /><vehicle id="veh174" type="vType_car_40.34499289665272" route="route_north_to_south" depart="4.40" /><vehicle id="veh176" type="vType_car_13.569050485111557" route="route_north_to_east" depart="7.80" /><vehicle id="veh180" type="vType_car_20.68441338554981" route="route_north_to_west" depart="18.44" /><vehicle id="veh181" type="vType_car_26.139143061602272" route="route_north_to_south" depart="21.04" /><vehicle id="veh183" type="vType_car_24.927207254593373" route="route_north_to_south" depart="23.07" /><vehicle id="veh187" type="vType_car_33.259587588107756" route="route_south_to_north" depart="24.31" /><vehicle id="veh189" type="vType_car_12.42731376127061" route="route_north_to_east" depart="26.97" /><vehicle id="veh192" type="vType_car_7.71183293095333" route="route_east_to_north" depart="31.87" /><vehicle id="veh194" type="vType_car_33.23118028142591" route="route_south_to_north" depart="32.01" /><vehicle id="veh195" type="vType_car_24.249841732287607" route="route_south_to_west" depart="32.57" /><vehicle id="veh197" type="vType_car_16.673213575211385" route="route_north_to_east" depart="35.21" /><vehicle id="veh198" type="vType_car_21.959522284569186" route="route_south_to_west" depart="36.97" /><vehicle id="veh201" type="vType_car_7.596974226993765" route="route_east_to_north" depart="37.54" /><vehicle id="veh202" type="vType_car_17.919091098377333" route="route_north_to_east" depart="39.17" /><vehicle id="veh205" type="vType_car_22.231183700535265" route="route_north_to_west" depart="40.58" /><vehicle id="veh210" type="vType_car_31.571692102304894" route="route_north_to_south" depart="43.74" /><vehicle id="veh212" type="vType_car_16.6945572717983" route="route_north_to_east" depart="46.58" /><vehicle id="veh215" type="vType_car_22.929259956892984" route="route_north_to_west" depart="48.24" /><vehicle id="veh222" type="vType_car_9.441057352888892" route="route_east_to_north" depart="52.01" /></routes>