<?xml version='1.0' encoding='utf-8'?>
<routes><vType id="vType_car_7.554695886446" accel="1.0" decel="5.0" sigma="0.0" length="4.5" maxSpeed="2.0985266351238887" /><vType id="vType_car_36.263417732742994" accel="1.0" decel="5.0" sigma="0.0" length="4.5" maxSpeed="10.07317159242861" /><vType id="vType_car_13.812185473285712" accel="1.0" decel="5.0" sigma="0.0" length="4.5" maxSpeed="3.8367181870238087" /><vType id="vType_car_1.3665317542864392" accel="1.0" decel="5.0" sigma="0.0" length="4.5" maxSpeed="0.37959215396845536" /><vType id="vType_car_14.401159451099364" accel="1.0" decel="5.0" sigma="0.0" length="4.5" maxSpeed="4.000322069749823" /><vType id="vType_car_16.135837693905618" accel="1.0" decel="5.0" sigma="0.0" length="4.5" maxSpeed="4.482177137196005" /><vType id="vType_car_12.662992276793641" accel="1.0" decel="5.0" sigma="0.0" length="4.5" maxSpeed="3.5174978546649003" /><vType id="vType_car_14.079580381058156" accel="1.0" decel="5.0" sigma="0.0" length="4.5" maxSpeed="3.910994550293932" /><vType id="vType_car_40.47412244517605" accel="1.0" decel="5.0" sigma="0.0" length="4.5" maxSpeed="11.24281179032668" /><vType id="vType_car_15.343389765680522" accel="1.0" decel="5.0" sigma="0.0" length="4.5" maxSpeed="4.262052712689034" /><vType id="vType_car_14.232747385676843" accel="1.0" decel="5.0" sigma="0.0" length="4.5" maxSpeed="3.9535409404657895" /><vType id="vType_car_13.75298658286536" accel="1.0" decel="5.0" sigma="0.0" length="4.5" maxSpeed="3.820274050795933" /><route id="route_north_to_east" edges="north_to_center center_to_east" /><route id="route_north_to_south" edges="north_to_center center_to_south" /><route id="route_north_to_west" edges="north_to_center center_to_west" /><route id="route_east_to_west" edges="east_to_center center_to_west" /><route id="route_east_to_south" edges="east_to_center center_to_south" /><route id="route_east_to_north" edges="east_to_center center_to_north" /><route id="route_south_to_west" edges="south_to_center center_to_west" /><route id="route_south_to_north" edges="south_to_center center_to_north" /><route id="route_south_to_east" edges="south_to_center center_to_east" /><route id="route_west_to_south" edges="west_to_center center_to_south" /><route id="route_west_to_north" edges="west_to_center center_to_north" /><route id="route_west_to_east" edges="west_to_center center_to_east" /><vehicle id="veh235" type="vType_car_36.263417732742994" route="route_south_to_north" depart="2.51" /><vehicle id="veh236" type="vType_car_13.812185473285712" route="route_east_to_south" depart="16.26" /><vehicle id="veh241" type="vType_car_14.401159451099364" route="route_east_to_south" depart="19.01" /><vehicle id="veh243" type="vType_car_16.135837693905618" route="route_north_to_west" depart="19.82" /><vehicle id="veh244" type="vType_car_12.662992276793641" route="route_north_to_east" depart="21.63" /><vehicle id="veh245" type="vType_car_14.079580381058156" route="route_east_to_south" depart="24.81" /><vehicle id="veh246" type="vType_car_40.47412244517605" route="route_east_to_west" depart="25.21" /><vehicle id="veh247" type="vType_car_15.343389765680522" route="route_north_to_west" depart="25.58" /><vehicle id="veh248" type="vType_car_14.232747385676843" route="route_north_to_south" depart="27.56" /></routes>