<?xml version='1.0' encoding='utf-8'?>
<routes><vType id="vType_car_17.301498879197904" accel="1.0" decel="5.0" sigma="0.0" length="4.5" maxSpeed="4.8059719108883066" /><vType id="vType_car_16.346779027035588" accel="1.0" decel="5.0" sigma="0.0" length="4.5" maxSpeed="4.54077195195433" /><vType id="vType_car_15.73159311795028" accel="1.0" decel="5.0" sigma="0.0" length="4.5" maxSpeed="4.369886977208411" /><vType id="vType_car_6.328814834231549" accel="1.0" decel="5.0" sigma="0.0" length="4.5" maxSpeed="1.7580041206198747" /><vType id="vType_car_14.084488028368416" accel="1.0" decel="5.0" sigma="0.0" length="4.5" maxSpeed="3.912357785657893" /><vType id="vType_car_89.48441134907932" accel="1.0" decel="5.0" sigma="0.0" length="4.5" maxSpeed="24.856780930299813" /><vType id="vType_car_12.981498868264325" accel="1.0" decel="5.0" sigma="0.0" length="4.5" maxSpeed="3.605971907851201" /><vType id="vType_car_21.871100658694264" accel="1.0" decel="5.0" sigma="0.0" length="4.5" maxSpeed="6.075305738526184" /><vType id="vType_car_15.158840514873752" accel="1.0" decel="5.0" sigma="0.0" length="4.5" maxSpeed="4.210789031909376" /><vType id="vType_car_19.350805870804436" accel="1.0" decel="5.0" sigma="0.0" length="4.5" maxSpeed="5.375223853001232" /><vType id="vType_car_4.56345280584249" accel="1.0" decel="5.0" sigma="0.0" length="4.5" maxSpeed="1.2676257794006918" /><vType id="vType_car_51.37531014945506" accel="1.0" decel="5.0" sigma="0.0" length="4.5" maxSpeed="14.27091948595974" /><vType id="vType_car_13.464997050298331" accel="1.0" decel="5.0" sigma="0.0" length="4.5" maxSpeed="3.740276958416203" /><vType id="vType_car_8.408937458210536" accel="1.0" decel="5.0" sigma="0.0" length="4.5" maxSpeed="2.335815960614038" /><vType id="vType_car_21.238888397956586" accel="1.0" decel="5.0" sigma="0.0" length="4.5" maxSpeed="5.899691221654607" /><vType id="vType_car_10.094965452686765" accel="1.0" decel="5.0" sigma="0.0" length="4.5" maxSpeed="2.804157070190768" /><route id="route_north_to_east" edges="north_to_center center_to_east" /><route id="route_north_to_south" edges="north_to_center center_to_south" /><route id="route_north_to_west" edges="north_to_center center_to_west" /><route id="route_east_to_west" edges="east_to_center center_to_west" /><route id="route_east_to_south" edges="east_to_center center_to_south" /><route id="route_east_to_north" edges="east_to_center center_to_north" /><route id="route_south_to_west" edges="south_to_center center_to_west" /><route id="route_south_to_north" edges="south_to_center center_to_north" /><route id="route_south_to_east" edges="south_to_center center_to_east" /><route id="route_west_to_south" edges="west_to_center center_to_south" /><route id="route_west_to_north" edges="west_to_center center_to_north" /><route id="route_west_to_east" edges="west_to_center center_to_east" /><vehicle id="veh223" type="vType_car_17.301498879197904" route="route_north_to_east" depart="1.93" /><vehicle id="veh230" type="vType_car_14.084488028368416" route="route_north_to_south" depart="37.86" /><vehicle id="veh236" type="vType_car_12.981498868264325" route="route_north_to_west" depart="49.12" /><vehicle id="veh242" type="vType_car_19.350805870804436" route="route_south_to_east" depart="53.44" /><vehicle id="veh251" type="vType_car_21.238888397956586" route="route_south_to_east" depart="57.62" /></routes>