<?xml version='1.0' encoding='utf-8'?>
<routes><vType id="vType_car_9.266114909412071" accel="1.0" decel="5.0" sigma="0.0" length="4.5" maxSpeed="2.5739208081700196" /><vType id="vType_car_12.644369844189589" accel="1.0" decel="5.0" sigma="0.0" length="4.5" maxSpeed="3.51232495671933" /><vType id="vType_car_15.101721113919027" accel="1.0" decel="5.0" sigma="0.0" length="4.5" maxSpeed="4.194922531644174" /><vType id="vType_car_15.2456469118258" accel="1.0" decel="5.0" sigma="0.0" length="4.5" maxSpeed="4.234901919951611" /><vType id="vType_car_9.915943731274789" accel="1.0" decel="5.0" sigma="0.0" length="4.5" maxSpeed="2.754428814242997" /><vType id="vType_car_10.206188215589144" accel="1.0" decel="5.0" sigma="0.0" length="4.5" maxSpeed="2.8350522821080957" /><vType id="vType_car_14.54417015622951" accel="1.0" decel="5.0" sigma="0.0" length="4.5" maxSpeed="4.040047265619308" /><vType id="vType_car_7.35149654994652" accel="1.0" decel="5.0" sigma="0.0" length="4.5" maxSpeed="2.0420823749851444" /><vType id="vType_car_10.661133537942119" accel="1.0" decel="5.0" sigma="0.0" length="4.5" maxSpeed="2.9614259827616998" /><vType id="vType_car_10.298497562555337" accel="1.0" decel="5.0" sigma="0.0" length="4.5" maxSpeed="2.8606937673764823" /><vType id="vType_car_11.442601193580101" accel="1.0" decel="5.0" sigma="0.0" length="4.5" maxSpeed="3.178500331550028" /><vType id="vType_car_20.67123196486351" accel="1.0" decel="5.0" sigma="0.0" length="4.5" maxSpeed="5.742008879128752" /><vType id="vType_car_9.05300939674297" accel="1.0" decel="5.0" sigma="0.0" length="4.5" maxSpeed="2.5147248324286027" /><vType id="vType_car_2.7116214211707153" accel="1.0" decel="5.0" sigma="0.0" length="4.5" maxSpeed="0.7532281725474209" /><vType id="vType_car_2.9959025108754695" accel="1.0" decel="5.0" sigma="0.0" length="4.5" maxSpeed="0.8321951419098527" /><vType id="vType_car_2.766589646096017" accel="1.0" decel="5.0" sigma="0.0" length="4.5" maxSpeed="0.7684971239155602" /><vType id="vType_car_2.5990812886175463" accel="1.0" decel="5.0" sigma="0.0" length="4.5" maxSpeed="0.721967024615985" /><vType id="vType_car_9.264112186154906" accel="1.0" decel="5.0" sigma="0.0" length="4.5" maxSpeed="2.57336449615414" /><vType id="vType_car_53.62369082629405" accel="1.0" decel="5.0" sigma="0.0" length="4.5" maxSpeed="14.89546967397057" /><vType id="vType_car_0.13832948230480085" accel="1.0" decel="5.0" sigma="0.0" length="4.5" maxSpeed="0.03842485619577801" /><vType id="vType_truck_5.436133609458569" accel="1.0" decel="5.0" sigma="0.0" length="8" maxSpeed="1.5100371137384914" /><vType id="vType_car_6.107933280883211" accel="1.0" decel="5.0" sigma="0.0" length="4.5" maxSpeed="1.6966481335786696" /><vType id="vType_car_33.50260235317256" accel="1.0" decel="5.0" sigma="0.0" length="4.5" maxSpeed="9.306278431436823" /><vType id="vType_car_2.6440182283398954" accel="1.0" decel="5.0" sigma="0.0" length="4.5" maxSpeed="0.7344495078721932" /><vType id="vType_car_8.08068167084237" accel="1.0" decel="5.0" sigma="0.0" length="4.5" maxSpeed="2.244633797456214" /><vType id="vType_car_43.046206340387656" accel="1.0" decel="5.0" sigma="0.0" length="4.5" maxSpeed="11.957279538996572" /><vType id="vType_car_18.783083770226455" accel="1.0" decel="5.0" sigma="0.0" length="4.5" maxSpeed="5.217523269507349" /><vType id="vType_car_9.347612112271463" accel="1.0" decel="5.0" sigma="0.0" length="4.5" maxSpeed="2.5965589200754065" /><vType id="vType_car_10.389671564364273" accel="1.0" decel="5.0" sigma="0.0" length="4.5" maxSpeed="2.8860198789900755" /><vType id="vType_car_3.3395691225629927" accel="1.0" decel="5.0" sigma="0.0" length="4.5" maxSpeed="0.9276580896008313" /><vType id="vType_car_62.288770776762576" accel="1.0" decel="5.0" sigma="0.0" length="4.5" maxSpeed="17.302436326878492" /><vType id="vType_car_7.873777583961858" accel="1.0" decel="5.0" sigma="0.0" length="4.5" maxSpeed="2.187160439989405" /><vType id="vType_car_6.100832238223228" accel="1.0" decel="5.0" sigma="0.0" length="4.5" maxSpeed="1.6946756217286745" /><vType id="vType_truck_5.577072302947763" accel="1.0" decel="5.0" sigma="0.0" length="8" maxSpeed="1.549186750818823" /><vType id="vType_car_6.283384587192804" accel="1.0" decel="5.0" sigma="0.0" length="4.5" maxSpeed="1.7453846075535564" /><vType id="vType_car_40.69492978860179" accel="1.0" decel="5.0" sigma="0.0" length="4.5" maxSpeed="11.304147163500497" /><vType id="vType_car_21.04314301567974" accel="1.0" decel="5.0" sigma="0.0" length="4.5" maxSpeed="5.845317504355483" /><vType id="vType_car_2.759703679559759" accel="1.0" decel="5.0" sigma="0.0" length="4.5" maxSpeed="0.7665843554332664" /><vType id="vType_car_14.106894591547347" accel="1.0" decel="5.0" sigma="0.0" length="4.5" maxSpeed="3.918581830985374" /><vType id="vType_car_8.351371835435957" accel="1.0" decel="5.0" sigma="0.0" length="4.5" maxSpeed="2.3198255098433216" /><vType id="vType_car_8.579737407227647" accel="1.0" decel="5.0" sigma="0.0" length="4.5" maxSpeed="2.3832603908965684" /><vType id="vType_car_13.124476006804885" accel="1.0" decel="5.0" sigma="0.0" length="4.5" maxSpeed="3.6456877796680236" /><vType id="vType_car_9.124210678428836" accel="1.0" decel="5.0" sigma="0.0" length="4.5" maxSpeed="2.534502966230232" /><vType id="vType_car_7.823628381316726" accel="1.0" decel="5.0" sigma="0.0" length="4.5" maxSpeed="2.173230105921313" /><vType id="vType_car_8.264872040243347" accel="1.0" decel="5.0" sigma="0.0" length="4.5" maxSpeed="2.2957977889564853" /><vType id="vType_car_16.649488723427563" accel="1.0" decel="5.0" sigma="0.0" length="4.5" maxSpeed="4.624857978729879" /><vType id="vType_car_1.8991280573861278" accel="1.0" decel="5.0" sigma="0.0" length="4.5" maxSpeed="0.5275355714961466" /><vType id="vType_car_6.37109196315494" accel="1.0" decel="5.0" sigma="0.0" length="4.5" maxSpeed="1.7697477675430386" /><vType id="vType_car_27.924858229566404" accel="1.0" decel="5.0" sigma="0.0" length="4.5" maxSpeed="7.756905063768445" /><vType id="vType_car_3.5978463816932638" accel="1.0" decel="5.0" sigma="0.0" length="4.5" maxSpeed="0.9994017726925732" /><vType id="vType_car_1.9366127522672119" accel="1.0" decel="5.0" sigma="0.0" length="4.5" maxSpeed="0.5379479867408922" /><vType id="vType_car_22.30495881060015" accel="1.0" decel="5.0" sigma="0.0" length="4.5" maxSpeed="6.195821891833376" /><vType id="vType_car_35.07482217434854" accel="1.0" decel="5.0" sigma="0.0" length="4.5" maxSpeed="9.743006159541261" /><vType id="vType_car_21.412582665894373" accel="1.0" decel="5.0" sigma="0.0" length="4.5" maxSpeed="5.947939629415104" /><vType id="vType_car_10.647620788869999" accel="1.0" decel="5.0" sigma="0.0" length="4.5" maxSpeed="2.9576724413527775" /><vType id="vType_car_10.307108042970937" accel="1.0" decel="5.0" sigma="0.0" length="4.5" maxSpeed="2.8630855674919267" /><vType id="vType_car_48.05096315645866" accel="1.0" decel="5.0" sigma="0.0" length="4.5" maxSpeed="13.34748976568296" /><vType id="vType_car_1.8646004046747109" accel="1.0" decel="5.0" sigma="0.0" length="4.5" maxSpeed="0.5179445568540864" /><vType id="vType_car_5.86427690094993" accel="1.0" decel="5.0" sigma="0.0" length="4.5" maxSpeed="1.628965805819425" /><vType id="vType_car_47.82447672443558" accel="1.0" decel="5.0" sigma="0.0" length="4.5" maxSpeed="13.284576867898771" /><vType id="vType_car_3.1116120327539574" accel="1.0" decel="5.0" sigma="0.0" length="4.5" maxSpeed="0.8643366757649882" /><vType id="vType_car_48.047688925302154" accel="1.0" decel="5.0" sigma="0.0" length="4.5" maxSpeed="13.346580257028375" /><vType id="vType_car_2.0749422345720125" accel="1.0" decel="5.0" sigma="0.0" length="4.5" maxSpeed="0.5763728429366701" /><vType id="vType_truck_10.628727016255606" accel="1.0" decel="5.0" sigma="0.0" length="8" maxSpeed="2.9524241711821126" /><vType id="vType_car_8.747716167069601" accel="1.0" decel="5.0" sigma="0.0" length="4.5" maxSpeed="2.429921157519334" /><vType id="vType_car_12.074088732251328" accel="1.0" decel="5.0" sigma="0.0" length="4.5" maxSpeed="3.3539135367364796" /><vType id="vType_car_16.326353444394105" accel="1.0" decel="5.0" sigma="0.0" length="4.5" maxSpeed="4.535098178998362" /><vType id="vType_car_19.427231428376306" accel="1.0" decel="5.0" sigma="0.0" length="4.5" maxSpeed="5.396453174548974" /><vType id="vType_car_11.827211868861276" accel="1.0" decel="5.0" sigma="0.0" length="4.5" maxSpeed="3.2853366302392435" /><vType id="vType_car_17.168066513805908" accel="1.0" decel="5.0" sigma="0.0" length="4.5" maxSpeed="4.768907364946085" /><vType id="vType_car_16.526759796833144" accel="1.0" decel="5.0" sigma="0.0" length="4.5" maxSpeed="4.590766610231428" /><vType id="vType_car_3.3852178975477947" accel="1.0" decel="5.0" sigma="0.0" length="4.5" maxSpeed="0.9403383048743874" /><vType id="vType_car_11.427101512680425" accel="1.0" decel="5.0" sigma="0.0" length="4.5" maxSpeed="3.174194864633451" /><vType id="vType_car_4.098090750681675" accel="1.0" decel="5.0" sigma="0.0" length="4.5" maxSpeed="1.138358541856021" /><vType id="vType_car_19.803682291373747" accel="1.0" decel="5.0" sigma="0.0" length="4.5" maxSpeed="5.501022858714929" /><vType id="vType_car_12.369655191242057" accel="1.0" decel="5.0" sigma="0.0" length="4.5" maxSpeed="3.436015330900571" /><vType id="vType_car_18.915881652741803" accel="1.0" decel="5.0" sigma="0.0" length="4.5" maxSpeed="5.254411570206056" /><vType id="vType_car_4.399758638608049" accel="1.0" decel="5.0" sigma="0.0" length="4.5" maxSpeed="1.2221551773911248" /><vType id="vType_car_13.801050796307866" accel="1.0" decel="5.0" sigma="0.0" length="4.5" maxSpeed="3.8336252211966295" /><vType id="vType_car_4.9892021510891995" accel="1.0" decel="5.0" sigma="0.0" length="4.5" maxSpeed="1.3858894864136666" /><vType id="vType_car_20.992162826248574" accel="1.0" decel="5.0" sigma="0.0" length="4.5" maxSpeed="5.831156340624604" /><vType id="vType_car_2.937322450956116" accel="1.0" decel="5.0" sigma="0.0" length="4.5" maxSpeed="0.8159229030433656" /><vType id="vType_car_24.04977290376002" accel="1.0" decel="5.0" sigma="0.0" length="4.5" maxSpeed="6.680492473266671" /><vType id="vType_car_22.85452688041543" accel="1.0" decel="5.0" sigma="0.0" length="4.5" maxSpeed="6.348479689004286" /><vType id="vType_bus_16.361670467524565" accel="1.0" decel="5.0" sigma="0.0" length="13" maxSpeed="4.544908463201268" /><vType id="vType_car_23.35079583709649" accel="1.0" decel="5.0" sigma="0.0" length="4.5" maxSpeed="6.486332176971247" /><vType id="vType_car_34.441786669613805" accel="1.0" decel="5.0" sigma="0.0" length="4.5" maxSpeed="9.567162963781612" /><vType id="vType_car_26.890799499829736" accel="1.0" decel="5.0" sigma="0.0" length="4.5" maxSpeed="7.469666527730482" /><vType id="vType_car_14.676202521681565" accel="1.0" decel="5.0" sigma="0.0" length="4.5" maxSpeed="4.076722922689323" /><vType id="vType_car_18.352728354958373" accel="1.0" decel="5.0" sigma="0.0" length="4.5" maxSpeed="5.097980098599548" /><vType id="vType_car_23.22932256822239" accel="1.0" decel="5.0" sigma="0.0" length="4.5" maxSpeed="6.452589602283997" /><vType id="vType_car_10.372177445704516" accel="1.0" decel="5.0" sigma="0.0" length="4.5" maxSpeed="2.8811604015845877" /><vType id="vType_car_24.215921128335168" accel="1.0" decel="5.0" sigma="0.0" length="4.5" maxSpeed="6.72664475787088" /><vType id="vType_car_2.8559286974136024" accel="1.0" decel="5.0" sigma="0.0" length="4.5" maxSpeed="0.793313527059334" /><vType id="vType_car_25.484083548079866" accel="1.0" decel="5.0" sigma="0.0" length="4.5" maxSpeed="7.0789120966888515" /><vType id="vType_car_19.308300063841635" accel="1.0" decel="5.0" sigma="0.0" length="4.5" maxSpeed="5.3634166844004545" /><vType id="vType_car_30.492064933914534" accel="1.0" decel="5.0" sigma="0.0" length="4.5" maxSpeed="8.470018037198482" /><vType id="vType_car_26.476826617356274" accel="1.0" decel="5.0" sigma="0.0" length="4.5" maxSpeed="7.354674060376743" /><vType id="vType_car_2.1517919469635687" accel="1.0" decel="5.0" sigma="0.0" length="4.5" maxSpeed="0.5977199852676579" /><vType id="vType_car_14.447912017479393" accel="1.0" decel="5.0" sigma="0.0" length="4.5" maxSpeed="4.013308893744275" /><vType id="vType_car_2.670503606268347" accel="1.0" decel="5.0" sigma="0.0" length="4.5" maxSpeed="0.741806557296763" /><vType id="vType_car_29.840391787921476" accel="1.0" decel="5.0" sigma="0.0" length="4.5" maxSpeed="8.288997718867076" /><vType id="vType_car_12.614230447092563" accel="1.0" decel="5.0" sigma="0.0" length="4.5" maxSpeed="3.5039529019701563" /><vType id="vType_car_20.284637328305816" accel="1.0" decel="5.0" sigma="0.0" length="4.5" maxSpeed="5.634621480084949" /><vType id="vType_car_1.8443930973973446" accel="1.0" decel="5.0" sigma="0.0" length="4.5" maxSpeed="0.5123314159437068" /><vType id="vType_car_15.663079292625964" accel="1.0" decel="5.0" sigma="0.0" length="4.5" maxSpeed="4.350855359062768" /><vType id="vType_car_2.1261753761663833" accel="1.0" decel="5.0" sigma="0.0" length="4.5" maxSpeed="0.5906042711573287" /><vType id="vType_car_47.11718006127431" accel="1.0" decel="5.0" sigma="0.0" length="4.5" maxSpeed="13.088105572576197" /><vType id="vType_car_5.498607328307801" accel="1.0" decel="5.0" sigma="0.0" length="4.5" maxSpeed="1.5273909245299446" /><vType id="vType_car_20.293383285252315" accel="1.0" decel="5.0" sigma="0.0" length="4.5" maxSpeed="5.637050912570087" /><vType id="vType_car_15.594203514073065" accel="1.0" decel="5.0" sigma="0.0" length="4.5" maxSpeed="4.331723198353629" /><vType id="vType_car_2.9177322652499065" accel="1.0" decel="5.0" sigma="0.0" length="4.5" maxSpeed="0.8104811847916407" /><vType id="vType_car_4.11526154797769" accel="1.0" decel="5.0" sigma="0.0" length="4.5" maxSpeed="1.1431282077715805" /><vType id="vType_car_22.641913723118066" accel="1.0" decel="5.0" sigma="0.0" length="4.5" maxSpeed="6.2894204786439065" /><vType id="vType_car_4.011666259024551" accel="1.0" decel="5.0" sigma="0.0" length="4.5" maxSpeed="1.114351738617931" /><vType id="vType_car_6.11764186267697" accel="1.0" decel="5.0" sigma="0.0" length="4.5" maxSpeed="1.6993449618547138" /><vType id="vType_car_3.1393477601090516" accel="1.0" decel="5.0" sigma="0.0" length="4.5" maxSpeed="0.8720410444747365" /><vType id="vType_car_23.978296694156825" accel="1.0" decel="5.0" sigma="0.0" length="4.5" maxSpeed="6.660637970599118" /><vType id="vType_car_25.86065200769146" accel="1.0" decel="5.0" sigma="0.0" length="4.5" maxSpeed="7.183514446580961" /><vType id="vType_car_24.432208119279142" accel="1.0" decel="5.0" sigma="0.0" length="4.5" maxSpeed="6.78672447757754" /><vType id="vType_car_4.670206956904052" accel="1.0" decel="5.0" sigma="0.0" length="4.5" maxSpeed="1.2972797102511255" /><vType id="vType_car_2.389327421628378" accel="1.0" decel="5.0" sigma="0.0" length="4.5" maxSpeed="0.6637020615634384" /><vType id="vType_car_21.924209837259053" accel="1.0" decel="5.0" sigma="0.0" length="4.5" maxSpeed="6.090058288127515" /><vType id="vType_car_15.553994969471546" accel="1.0" decel="5.0" sigma="0.0" length="4.5" maxSpeed="4.320554158186541" /><vType id="vType_car_27.894441028209652" accel="1.0" decel="5.0" sigma="0.0" length="4.5" maxSpeed="7.748455841169347" /><vType id="vType_car_13.319204324614454" accel="1.0" decel="5.0" sigma="0.0" length="4.5" maxSpeed="3.6997789790595705" /><vType id="vType_car_3.183358573120205" accel="1.0" decel="5.0" sigma="0.0" length="4.5" maxSpeed="0.8842662703111681" /><vType id="vType_car_7.782180967189514" accel="1.0" decel="5.0" sigma="0.0" length="4.5" maxSpeed="2.1617169353304204" /><vType id="vType_car_5.801633058461624" accel="1.0" decel="5.0" sigma="0.0" length="4.5" maxSpeed="1.6115647384615621" /><vType id="vType_car_2.8593040676712063" accel="1.0" decel="5.0" sigma="0.0" length="4.5" maxSpeed="0.7942511299086684" /><vType id="vType_car_10.03256142974056" accel="1.0" decel="5.0" sigma="0.0" length="4.5" maxSpeed="2.7868226193723777" /><vType id="vType_car_7.063414368436244" accel="1.0" decel="5.0" sigma="0.0" length="4.5" maxSpeed="1.9620595467878454" /><vType id="vType_car_7.649495096318837" accel="1.0" decel="5.0" sigma="0.0" length="4.5" maxSpeed="2.1248597489774546" /><vType id="vType_car_3.9620084258880595" accel="1.0" decel="5.0" sigma="0.0" length="4.5" maxSpeed="1.1005578960800164" /><vType id="vType_car_12.160883081338481" accel="1.0" decel="5.0" sigma="0.0" length="4.5" maxSpeed="3.378023078149578" /><vType id="vType_car_3.688786194794689" accel="1.0" decel="5.0" sigma="0.0" length="4.5" maxSpeed="1.0246628318874136" /><vType id="vType_car_3.8673898921897067" accel="1.0" decel="5.0" sigma="0.0" length="4.5" maxSpeed="1.0742749700526963" /><vType id="vType_car_6.71338292842887" accel="1.0" decel="5.0" sigma="0.0" length="4.5" maxSpeed="1.8648285912302416" /><vType id="vType_car_4.035872611691035" accel="1.0" decel="5.0" sigma="0.0" length="4.5" maxSpeed="1.1210757254697319" /><vType id="vType_car_58.50546801892703" accel="1.0" decel="5.0" sigma="0.0" length="4.5" maxSpeed="16.251518894146397" /><vType id="vType_car_5.808722085848543" accel="1.0" decel="5.0" sigma="0.0" length="4.5" maxSpeed="1.6135339127357062" /><vType id="vType_car_28.186305624697702" accel="1.0" decel="5.0" sigma="0.0" length="4.5" maxSpeed="7.829529340193806" /><vType id="vType_car_34.56430927526475" accel="1.0" decel="5.0" sigma="0.0" length="4.5" maxSpeed="9.601197020906874" /><vType id="vType_car_39.73436632132389" accel="1.0" decel="5.0" sigma="0.0" length="4.5" maxSpeed="11.037323978145524" /><vType id="vType_car_3.2576260812420235" accel="1.0" decel="5.0" sigma="0.0" length="4.5" maxSpeed="0.9048961336783399" /><vType id="vType_car_33.936037353702346" accel="1.0" decel="5.0" sigma="0.0" length="4.5" maxSpeed="9.426677042695095" /><vType id="vType_car_49.930451627590195" accel="1.0" decel="5.0" sigma="0.0" length="4.5" maxSpeed="13.869569896552832" /><vType id="vType_car_3.053079384329505" accel="1.0" decel="5.0" sigma="0.0" length="4.5" maxSpeed="0.8480776067581958" /><vType id="vType_car_40.818609919427146" accel="1.0" decel="5.0" sigma="0.0" length="4.5" maxSpeed="11.33850275539643" /><vType id="vType_car_37.125516621567016" accel="1.0" decel="5.0" sigma="0.0" length="4.5" maxSpeed="10.312643505990838" /><vType id="vType_car_5.233937861788938" accel="1.0" decel="5.0" sigma="0.0" length="4.5" maxSpeed="1.453871628274705" /><vType id="vType_car_1.8956262389917153" accel="1.0" decel="5.0" sigma="0.0" length="4.5" maxSpeed="0.5265628441643654" /><vType id="vType_car_39.3303585047111" accel="1.0" decel="5.0" sigma="0.0" length="4.5" maxSpeed="10.925099584641972" /><vType id="vType_car_33.248717801123824" accel="1.0" decel="5.0" sigma="0.0" length="4.5" maxSpeed="9.235754944756618" /><vType id="vType_car_32.32408166822506" accel="1.0" decel="5.0" sigma="0.0" length="4.5" maxSpeed="8.978911574506961" /><vType id="vType_car_30.84015840955356" accel="1.0" decel="5.0" sigma="0.0" length="4.5" maxSpeed="8.566710669320432" /><vType id="vType_car_3.8311997190899265" accel="1.0" decel="5.0" sigma="0.0" length="4.5" maxSpeed="1.0642221441916462" /><vType id="vType_car_5.50389791402879" accel="1.0" decel="5.0" sigma="0.0" length="4.5" maxSpeed="1.5288605316746637" /><vType id="vType_car_2.3272447983994513" accel="1.0" decel="5.0" sigma="0.0" length="4.5" maxSpeed="0.646456888444292" /><vType id="vType_car_1.862837028371318" accel="1.0" decel="5.0" sigma="0.0" length="4.5" maxSpeed="0.5174547301031439" /><vType id="vType_car_3.3372961237654803" accel="1.0" decel="5.0" sigma="0.0" length="4.5" maxSpeed="0.9270267010459667" /><vType id="vType_car_2.630813387248411" accel="1.0" decel="5.0" sigma="0.0" length="4.5" maxSpeed="0.7307814964578919" /><vType id="vType_bus_25.102037703780443" accel="1.0" decel="5.0" sigma="0.0" length="13" maxSpeed="6.9727882510501225" /><vType id="vType_car_6.186282514517781" accel="1.0" decel="5.0" sigma="0.0" length="4.5" maxSpeed="1.7184118095882723" /><vType id="vType_car_7.05385566208197" accel="1.0" decel="5.0" sigma="0.0" length="4.5" maxSpeed="1.959404350578325" /><vType id="vType_car_3.9080026014349456" accel="1.0" decel="5.0" sigma="0.0" length="4.5" maxSpeed="1.0855562781763737" /><vType id="vType_car_2.195706068330172" accel="1.0" decel="5.0" sigma="0.0" length="4.5" maxSpeed="0.6099183523139367" /><vType id="vType_car_18.88798217299954" accel="1.0" decel="5.0" sigma="0.0" length="4.5" maxSpeed="5.246661714722094" /><vType id="vType_car_10.09971178272355" accel="1.0" decel="5.0" sigma="0.0" length="4.5" maxSpeed="2.805475495200986" /><vType id="vType_car_17.59490973313515" accel="1.0" decel="5.0" sigma="0.0" length="4.5" maxSpeed="4.887474925870875" /><vType id="vType_car_2.4193693857093814" accel="1.0" decel="5.0" sigma="0.0" length="4.5" maxSpeed="0.6720470515859392" /><vType id="vType_car_2.680419504946048" accel="1.0" decel="5.0" sigma="0.0" length="4.5" maxSpeed="0.7445609735961245" /><vType id="vType_car_14.679421647343784" accel="1.0" decel="5.0" sigma="0.0" length="4.5" maxSpeed="4.077617124262162" /><vType id="vType_car_15.007024010569985" accel="1.0" decel="5.0" sigma="0.0" length="4.5" maxSpeed="4.168617780713885" /><vType id="vType_car_3.0105881825809413" accel="1.0" decel="5.0" sigma="0.0" length="4.5" maxSpeed="0.8362744951613725" /><vType id="vType_car_11.758540131031522" accel="1.0" decel="5.0" sigma="0.0" length="4.5" maxSpeed="3.266261147508756" /><vType id="vType_car_15.697086743413157" accel="1.0" decel="5.0" sigma="0.0" length="4.5" maxSpeed="4.360301873170322" /><vType id="vType_car_21.699201812079654" accel="1.0" decel="5.0" sigma="0.0" length="4.5" maxSpeed="6.027556058911014" /><vType id="vType_car_2.540232311415433" accel="1.0" decel="5.0" sigma="0.0" length="4.5" maxSpeed="0.705620086504287" /><vType id="vType_car_45.577490669798216" accel="1.0" decel="5.0" sigma="0.0" length="4.5" maxSpeed="12.660414074943949" /><vType id="vType_car_21.429506769007045" accel="1.0" decel="5.0" sigma="0.0" length="4.5" maxSpeed="5.952640769168624" /><vType id="vType_car_3.7782911564888004" accel="1.0" decel="5.0" sigma="0.0" length="4.5" maxSpeed="1.049525321246889" /><vType id="vType_car_12.494870968687723" accel="1.0" decel="5.0" sigma="0.0" length="4.5" maxSpeed="3.470797491302145" /><route id="route_north_to_east" edges="north_to_center center_to_east" /><route id="route_north_to_south" edges="north_to_center center_to_south" /><route id="route_north_to_west" edges="north_to_center center_to_west" /><route id="route_east_to_west" edges="east_to_center center_to_west" /><route id="route_east_to_south" edges="east_to_center center_to_south" /><route id="route_east_to_north" edges="east_to_center center_to_north" /><route id="route_south_to_west" edges="south_to_center center_to_west" /><route id="route_south_to_north" edges="south_to_center center_to_north" /><route id="route_south_to_east" edges="south_to_center center_to_east" /><route id="route_west_to_south" edges="west_to_center center_to_south" /><route id="route_west_to_north" edges="west_to_center center_to_north" /><route id="route_west_to_east" edges="west_to_center center_to_east" /><vehicle id="veh629" type="vType_car_9.266114909412071" route="route_south_to_north" depart="0.05" /><vehicle id="veh636" type="vType_car_12.644369844189589" route="route_north_to_south" depart="0.05" /><vehicle id="veh655" type="vType_car_15.101721113919027" route="route_north_to_south" depart="0.05" /><vehicle id="veh661" type="vType_car_15.2456469118258" route="route_north_to_south" depart="0.05" /><vehicle id="veh686" type="vType_car_9.915943731274789" route="route_south_to_north" depart="0.05" /><vehicle id="veh693" type="vType_car_10.206188215589144" route="route_north_to_south" depart="0.05" /><vehicle id="veh706" type="vType_car_14.54417015622951" route="route_north_to_south" depart="0.05" /><vehicle id="veh710" type="vType_car_7.35149654994652" route="route_west_to_north" depart="0.05" /><vehicle id="veh725" type="vType_car_10.298497562555337" route="route_east_to_north" depart="0.05" /><vehicle id="veh721" type="vType_car_11.442601193580101" route="route_east_to_north" depart="0.05" /><vehicle id="veh734" type="vType_car_9.05300939674297" route="route_south_to_east" depart="0.05" /><vehicle id="veh739" type="vType_car_53.62369082629405" route="route_west_to_east" depart="0.64" /><vehicle id="veh757" type="vType_car_9.347612112271463" route="route_east_to_north" depart="5.78" /><vehicle id="veh768" type="vType_car_40.69492978860179" route="route_east_to_west" depart="7.70" /><vehicle id="veh769" type="vType_car_21.04314301567974" route="route_east_to_west" depart="9.93" /><vehicle id="veh772" type="vType_car_8.351371835435957" route="route_west_to_north" depart="11.80" /><vehicle id="veh773" type="vType_car_8.579737407227647" route="route_east_to_north" depart="12.11" /><vehicle id="veh776" type="vType_car_13.124476006804885" route="route_west_to_east" depart="13.75" /><vehicle id="veh793" type="vType_car_21.412582665894373" route="route_south_to_east" depart="20.18" /><vehicle id="veh794" type="vType_car_10.647620788869999" route="route_east_to_north" depart="20.18" /><vehicle id="veh796" type="vType_car_48.05096315645866" route="route_east_to_west" depart="21.63" /><vehicle id="veh801" type="vType_car_47.82447672443558" route="route_east_to_west" depart="25.91" /><vehicle id="veh808" type="vType_car_48.047688925302154" route="route_east_to_west" depart="33.16" /><vehicle id="veh814" type="vType_truck_10.628727016255606" route="route_west_to_east" depart="37.66" /><vehicle id="veh816" type="vType_car_8.747716167069601" route="route_east_to_west" depart="38.17" /><vehicle id="veh819" type="vType_car_12.074088732251328" route="route_north_to_east" depart="39.99" /><vehicle id="veh821" type="vType_car_16.326353444394105" route="route_north_to_east" depart="40.67" /><vehicle id="veh824" type="vType_car_19.427231428376306" route="route_north_to_south" depart="43.40" /><vehicle id="veh826" type="vType_car_11.827211868861276" route="route_north_to_west" depart="45.59" /><vehicle id="veh827" type="vType_car_17.168066513805908" route="route_north_to_south" depart="46.45" /><vehicle id="veh828" type="vType_car_16.526759796833144" route="route_north_to_south" depart="46.96" /><vehicle id="veh830" type="vType_car_11.427101512680425" route="route_north_to_west" depart="49.87" /><vehicle id="veh833" type="vType_car_19.803682291373747" route="route_north_to_south" depart="52.69" /><vehicle id="veh834" type="vType_car_12.369655191242057" route="route_north_to_west" depart="53.56" /><vehicle id="veh835" type="vType_car_18.915881652741803" route="route_north_to_south" depart="55.11" /><vehicle id="veh837" type="vType_car_13.801050796307866" route="route_west_to_east" depart="55.34" /><vehicle id="veh841" type="vType_car_20.992162826248574" route="route_north_to_south" depart="59.07" /><vehicle id="veh844" type="vType_car_24.04977290376002" route="route_south_to_north" depart="63.90" /><vehicle id="veh845" type="vType_car_22.85452688041543" route="route_south_to_north" depart="64.58" /><vehicle id="veh846" type="vType_bus_16.361670467524565" route="route_north_to_west" depart="67.27" /><vehicle id="veh848" type="vType_car_23.35079583709649" route="route_south_to_north" depart="69.50" /><vehicle id="veh849" type="vType_car_34.441786669613805" route="route_south_to_north" depart="70.55" /><vehicle id="veh850" type="vType_car_26.890799499829736" route="route_north_to_south" depart="70.64" /><vehicle id="veh854" type="vType_car_18.352728354958373" route="route_south_to_east" depart="72.32" /><vehicle id="veh855" type="vType_car_23.22932256822239" route="route_south_to_north" depart="73.14" /><vehicle id="veh856" type="vType_car_10.372177445704516" route="route_north_to_east" depart="73.46" /><vehicle id="veh857" type="vType_car_24.215921128335168" route="route_south_to_north" depart="73.60" /><vehicle id="veh859" type="vType_car_25.484083548079866" route="route_south_to_north" depart="75.83" /><vehicle id="veh861" type="vType_car_19.308300063841635" route="route_north_to_west" depart="78.52" /><vehicle id="veh862" type="vType_car_30.492064933914534" route="route_north_to_south" depart="79.79" /><vehicle id="veh863" type="vType_car_26.476826617356274" route="route_south_to_north" depart="80.66" /><vehicle id="veh865" type="vType_car_14.447912017479393" route="route_north_to_west" depart="82.52" /><vehicle id="veh869" type="vType_car_29.840391787921476" route="route_south_to_north" depart="84.12" /><vehicle id="veh870" type="vType_car_12.614230447092563" route="route_south_to_east" depart="84.94" /><vehicle id="veh872" type="vType_car_20.284637328305816" route="route_north_to_south" depart="86.26" /><vehicle id="veh875" type="vType_car_15.663079292625964" route="route_north_to_west" depart="90.54" /><vehicle id="veh880" type="vType_car_47.11718006127431" route="route_south_to_north" depart="97.51" /><vehicle id="veh886" type="vType_car_15.594203514073065" route="route_east_to_west" depart="106.80" /><vehicle id="veh891" type="vType_car_22.641913723118066" route="route_west_to_south" depart="107.94" /><vehicle id="veh939" type="vType_car_58.50546801892703" route="route_west_to_east" depart="122.38" /><vehicle id="veh941" type="vType_car_28.186305624697702" route="route_east_to_west" depart="123.65" /><vehicle id="veh946" type="vType_car_33.936037353702346" route="route_east_to_west" depart="127.98" /><vehicle id="veh948" type="vType_car_49.930451627590195" route="route_west_to_east" depart="128.39" /><vehicle id="veh953" type="vType_car_40.818609919427146" route="route_west_to_east" depart="131.80" /><vehicle id="veh955" type="vType_car_37.125516621567016" route="route_east_to_west" depart="132.03" /><vehicle id="veh959" type="vType_car_39.3303585047111" route="route_east_to_west" depart="134.31" /><vehicle id="veh960" type="vType_car_33.248717801123824" route="route_east_to_west" depart="134.44" /><vehicle id="veh961" type="vType_car_32.32408166822506" route="route_west_to_south" depart="136.04" /><vehicle id="veh965