<?xml version='1.0' encoding='utf-8'?>
<routes><vType id="vType_car_26.826442447528127" accel="1.0" decel="5.0" sigma="0.0" length="4.5" maxSpeed="7.451789568757813" /><vType id="vType_car_12.164615369930793" accel="1.0" decel="5.0" sigma="0.0" length="4.5" maxSpeed="3.379059824980776" /><vType id="vType_car_18.026352262647176" accel="1.0" decel="5.0" sigma="0.0" length="4.5" maxSpeed="5.007320072957548" /><vType id="vType_car_13.783718205811477" accel="1.0" decel="5.0" sigma="0.0" length="4.5" maxSpeed="3.8288106127254102" /><vType id="vType_car_18.475286197229437" accel="1.0" decel="5.0" sigma="0.0" length="4.5" maxSpeed="5.132023943674843" /><vType id="vType_car_23.811083868470668" accel="1.0" decel="5.0" sigma="0.0" length="4.5" maxSpeed="6.614189963464074" /><vType id="vType_car_17.42344021693637" accel="1.0" decel="5.0" sigma="0.0" length="4.5" maxSpeed="4.839844504704547" /><vType id="vType_car_16.59228310737606" accel="1.0" decel="5.0" sigma="0.0" length="4.5" maxSpeed="4.608967529826683" /><vType id="vType_car_17.295449809631283" accel="1.0" decel="5.0" sigma="0.0" length="4.5" maxSpeed="4.804291613786467" /><vType id="vType_car_29.48677046594021" accel="1.0" decel="5.0" sigma="0.0" length="4.5" maxSpeed="8.19076957387228" /><vType id="vType_car_14.345484097098447" accel="1.0" decel="5.0" sigma="0.0" length="4.5" maxSpeed="3.9848566936384575" /><vType id="vType_car_28.11823591747099" accel="1.0" decel="5.0" sigma="0.0" length="4.5" maxSpeed="7.810621088186386" /><vType id="vType_car_15.550895047058003" accel="1.0" decel="5.0" sigma="0.0" length="4.5" maxSpeed="4.319693068627223" /><vType id="vType_car_30.190244268884598" accel="1.0" decel="5.0" sigma="0.0" length="4.5" maxSpeed="8.386178963579054" /><vType id="vType_car_8.232972761841113" accel="1.0" decel="5.0" sigma="0.0" length="4.5" maxSpeed="2.286936878289198" /><vType id="vType_car_18.178554091770543" accel="1.0" decel="5.0" sigma="0.0" length="4.5" maxSpeed="5.0495983588251505" /><vType id="vType_car_7.7184211587380505" accel="1.0" decel="5.0" sigma="0.0" length="4.5" maxSpeed="2.144005877427236" /><vType id="vType_car_12.210541821325913" accel="1.0" decel="5.0" sigma="0.0" length="4.5" maxSpeed="3.3918171725905313" /><vType id="vType_car_28.89197556603498" accel="1.0" decel="5.0" sigma="0.0" length="4.5" maxSpeed="8.02554876834305" /><vType id="vType_car_28.48722607746212" accel="1.0" decel="5.0" sigma="0.0" length="4.5" maxSpeed="7.913118354850589" /><vType id="vType_car_3.279781121946339" accel="1.0" decel="5.0" sigma="0.0" length="4.5" maxSpeed="0.9110503116517609" /><vType id="vType_car_12.925045543708272" accel="1.0" decel="5.0" sigma="0.0" length="4.5" maxSpeed="3.590290428807853" /><vType id="vType_car_8.629949393060475" accel="1.0" decel="5.0" sigma="0.0" length="4.5" maxSpeed="2.3972081647390207" /><vType id="vType_car_8.427896435859877" accel="1.0" decel="5.0" sigma="0.0" length="4.5" maxSpeed="2.3410823432944103" /><vType id="vType_car_12.896569896703546" accel="1.0" decel="5.0" sigma="0.0" length="4.5" maxSpeed="3.5823805268620963" /><vType id="vType_car_8.382934006807037" accel="1.0" decel="5.0" sigma="0.0" length="4.5" maxSpeed="2.328592779668621" /><vType id="vType_car_34.69868714906404" accel="1.0" decel="5.0" sigma="0.0" length="4.5" maxSpeed="9.638524208073346" /><vType id="vType_car_25.471022549588405" accel="1.0" decel="5.0" sigma="0.0" length="4.5" maxSpeed="7.075284041552335" /><vType id="vType_car_2.5776202951049396" accel="1.0" decel="5.0" sigma="0.0" length="4.5" maxSpeed="0.7160056375291499" /><vType id="vType_car_19.796311783255018" accel="1.0" decel="5.0" sigma="0.0" length="4.5" maxSpeed="5.498975495348616" /><vType id="vType_car_5.3445928487928835" accel="1.0" decel="5.0" sigma="0.0" length="4.5" maxSpeed="1.4846091246646897" /><vType id="vType_car_15.060207799277881" accel="1.0" decel="5.0" sigma="0.0" length="4.5" maxSpeed="4.183391055354967" /><vType id="vType_car_2.9877182304900356" accel="1.0" decel="5.0" sigma="0.0" length="4.5" maxSpeed="0.8299217306916765" /><vType id="vType_car_23.00390964408209" accel="1.0" decel="5.0" sigma="0.0" length="4.5" maxSpeed="6.389974901133914" /><vType id="vType_car_24.62044681506761" accel="1.0" decel="5.0" sigma="0.0" length="4.5" maxSpeed="6.839013004185447" /><vType id="vType_car_5.345640771291395" accel="1.0" decel="5.0" sigma="0.0" length="4.5" maxSpeed="1.4849002142476095" /><vType id="vType_car_5.445837201546455" accel="1.0" decel="5.0" sigma="0.0" length="4.5" maxSpeed="1.5127325559851263" /><vType id="vType_car_23.659888015224535" accel="1.0" decel="5.0" sigma="0.0" length="4.5" maxSpeed="6.572191115340148" /><vType id="vType_car_3.7791978460625764" accel="1.0" decel="5.0" sigma="0.0" length="4.5" maxSpeed="1.0497771794618267" /><vType id="vType_car_4.0312673598769235" accel="1.0" decel="5.0" sigma="0.0" length="4.5" maxSpeed="1.119796488854701" /><route id="route_north_to_east" edges="north_to_center center_to_east" /><route id="route_north_to_south" edges="north_to_center center_to_south" /><route id="route_north_to_west" edges="north_to_center center_to_west" /><route id="route_east_to_west" edges="east_to_center center_to_west" /><route id="route_east_to_south" edges="east_to_center center_to_south" /><route id="route_east_to_north" edges="east_to_center center_to_north" /><route id="route_south_to_west" edges="south_to_center center_to_west" /><route id="route_south_to_north" edges="south_to_center center_to_north" /><route id="route_south_to_east" edges="south_to_center center_to_east" /><route id="route_west_to_south" edges="west_to_center center_to_south" /><route id="route_west_to_north" edges="west_to_center center_to_north" /><route id="route_west_to_east" edges="west_to_center center_to_east" /><vehicle id="veh1" type="vType_car_26.826442447528127" route="route_north_to_south" depart="0.03" /><vehicle id="veh2" type="vType_car_12.164615369930793" route="route_north_to_east" depart="0.03" /><vehicle id="veh5" type="vType_car_18.026352262647176" route="route_south_to_north" depart="1.13" /><vehicle id="veh7" type="vType_car_18.475286197229437" route="route_north_to_south" depart="5.90" /><vehicle id="veh8" type="vType_car_23.811083868470668" route="route_north_to_south" depart="6.03" /><vehicle id="veh10" type="vType_car_17.42344021693637" route="route_south_to_north" depart="6.97" /><vehicle id="veh11" type="vType_car_16.59228310737606" route="route_south_to_north" depart="7.33" /><vehicle id="veh14" type="vType_car_17.295449809631283" route="route_south_to_north" depart="9.94" /><vehicle id="veh16" type="vType_car_29.48677046594021" route="route_north_to_south" depart="10.57" /><vehicle id="veh20" type="vType_car_14.345484097098447" route="route_north_to_east" depart="11.50" /><vehicle id="veh21" type="vType_car_28.11823591747099" route="route_north_to_south" depart="11.74" /><vehicle id="veh22" type="vType_car_15.550895047058003" route="route_north_to_east" depart="12.87" /><vehicle id="veh24" type="vType_car_30.190244268884598" route="route_north_to_south" depart="15.07" /><vehicle id="veh25" type="vType_car_8.232972761841113" route="route_east_to_north" depart="16.60" /><vehicle id="veh27" type="vType_car_18.178554091770543" route="route_north_to_east" depart="18.30" /><vehicle id="veh29" type="vType_car_7.7184211587380505" route="route_east_to_north" depart="18.47" /><vehicle id="veh32" type="vType_car_12.210541821325913" route="route_west_to_north" depart="19.04" /><vehicle id="veh33" type="vType_car_28.89197556603498" route="route_north_to_south" depart="19.07" /><vehicle id="veh34" type="vType_car_28.48722607746212" route="route_north_to_south" depart="20.50" /><vehicle id="veh36" type="vType_car_12.925045543708272" route="route_west_to_south" depart="21.17" /><vehicle id="veh37" type="vType_car_8.629949393060475" route="route_east_to_north" depart="22.80" /><vehicle id="veh40" type="vType_car_12.896569896703546" route="route_west_to_south" depart="25.91" /><vehicle id="veh42" type="vType_car_8.382934006807037" route="route_east_to_north" depart="33.14" /><vehicle id="veh44" type="vType_car_34.69868714906404" route="route_south_to_west" depart="33.91" /><vehicle id="veh45" type="vType_car_25.471022549588405" route="route_south_to_north" depart="34.27" /><vehicle id="veh47" type="vType_car_19.796311783255018" route="route_north_to_south" depart="43.94" /><vehicle id="veh49" type="vType_car_15.060207799277881" route="route_north_to_east" depart="46.71" /><vehicle id="veh51" type="vType_car_23.00390964408209" route="route_north_to_south" depart="49.44" /><vehicle id="veh52" type="vType_car_24.62044681506761" route="route_north_to_south" depart="50.68" /></routes>