<?xml version='1.0' encoding='utf-8'?>
<routes><vType id="vType_car_5.3160488030641115" accel="1.0" decel="5.0" sigma="0.0" length="4.5" maxSpeed="1.4766802230733642" /><vType id="vType_car_106.1206146967689" accel="1.0" decel="5.0" sigma="0.0" length="4.5" maxSpeed="29.477948526880247" /><vType id="vType_car_26.6301757776693" accel="1.0" decel="5.0" sigma="0.0" length="4.5" maxSpeed="7.397271049352583" /><vType id="vType_car_6.095717016042278" accel="1.0" decel="5.0" sigma="0.0" length="4.5" maxSpeed="1.6932547266784106" /><vType id="vType_car_3.9398246731892272" accel="1.0" decel="5.0" sigma="0.0" length="4.5" maxSpeed="1.094395742552563" /><vType id="vType_car_34.67754831775276" accel="1.0" decel="5.0" sigma="0.0" length="4.5" maxSpeed="9.632652310486877" /><vType id="vType_car_14.025078815778977" accel="1.0" decel="5.0" sigma="0.0" length="4.5" maxSpeed="3.8958552266052715" /><vType id="vType_car_19.135318149610153" accel="1.0" decel="5.0" sigma="0.0" length="4.5" maxSpeed="5.315366152669487" /><vType id="vType_car_5.686383707965586" accel="1.0" decel="5.0" sigma="0.0" length="4.5" maxSpeed="1.5795510299904405" /><vType id="vType_car_28.890016262010437" accel="1.0" decel="5.0" sigma="0.0" length="4.5" maxSpeed="8.02500451722512" /><vType id="vType_car_17.87595517578592" accel="1.0" decel="5.0" sigma="0.0" length="4.5" maxSpeed="4.965543104384977" /><vType id="vType_car_24.036446776849935" accel="1.0" decel="5.0" sigma="0.0" length="4.5" maxSpeed="6.676790771347204" /><vType id="vType_car_11.224631220568705" accel="1.0" decel="5.0" sigma="0.0" length="4.5" maxSpeed="3.11795311682464" /><vType id="vType_car_32.024638821208775" accel="1.0" decel="5.0" sigma="0.0" length="4.5" maxSpeed="8.895733005891326" /><vType id="vType_car_26.659656705712983" accel="1.0" decel="5.0" sigma="0.0" length="4.5" maxSpeed="7.405460196031384" /><vType id="vType_car_18.28678977256698" accel="1.0" decel="5.0" sigma="0.0" length="4.5" maxSpeed="5.07966382571305" /><vType id="vType_car_34.2127696942838" accel="1.0" decel="5.0" sigma="0.0" length="4.5" maxSpeed="9.503547137301055" /><vType id="vType_car_13.802222497536404" accel="1.0" decel="5.0" sigma="0.0" length="4.5" maxSpeed="3.833950693760112" /><vType id="vType_car_13.870385173947216" accel="1.0" decel="5.0" sigma="0.0" length="4.5" maxSpeed="3.8528847705408933" /><vType id="vType_car_30.590764672558418" accel="1.0" decel="5.0" sigma="0.0" length="4.5" maxSpeed="8.497434631266227" /><vType id="vType_car_16.969981079705867" accel="1.0" decel="5.0" sigma="0.0" length="4.5" maxSpeed="4.71388363325163" /><vType id="vType_car_31.96809163929512" accel="1.0" decel="5.0" sigma="0.0" length="4.5" maxSpeed="8.880025455359755" /><vType id="vType_car_17.061686558118733" accel="1.0" decel="5.0" sigma="0.0" length="4.5" maxSpeed="4.739357377255204" /><vType id="vType_car_20.118582209083947" accel="1.0" decel="5.0" sigma="0.0" length="4.5" maxSpeed="5.588495058078874" /><vType id="vType_car_18.761124770835703" accel="1.0" decel="5.0" sigma="0.0" length="4.5" maxSpeed="5.211423547454362" /><vType id="vType_car_17.72232587931921" accel="1.0" decel="5.0" sigma="0.0" length="4.5" maxSpeed="4.922868299810892" /><vType id="vType_car_25.88758126163781" accel="1.0" decel="5.0" sigma="0.0" length="4.5" maxSpeed="7.1909947948993915" /><vType id="vType_car_29.536405915963165" accel="1.0" decel="5.0" sigma="0.0" length="4.5" maxSpeed="8.204557198878657" /><vType id="vType_car_17.65105333686696" accel="1.0" decel="5.0" sigma="0.0" length="4.5" maxSpeed="4.903070371351933" /><vType id="vType_car_18.360158042488433" accel="1.0" decel="5.0" sigma="0.0" length="4.5" maxSpeed="5.100043900691231" /><vType id="vType_car_20.334250308438957" accel="1.0" decel="5.0" sigma="0.0" length="4.5" maxSpeed="5.648402863455265" /><vType id="vType_car_12.077156454834693" accel="1.0" decel="5.0" sigma="0.0" length="4.5" maxSpeed="3.3547656818985256" /><vType id="vType_car_22.46840908743305" accel="1.0" decel="5.0" sigma="0.0" length="4.5" maxSpeed="6.24122474650918" /><vType id="vType_car_17.741267581629394" accel="1.0" decel="5.0" sigma="0.0" length="4.5" maxSpeed="4.928129883785942" /><vType id="vType_car_3.881165459702225" accel="1.0" decel="5.0" sigma="0.0" length="4.5" maxSpeed="1.0781015165839514" /><vType id="vType_car_20.74099813884307" accel="1.0" decel="5.0" sigma="0.0" length="4.5" maxSpeed="5.761388371900853" /><vType id="vType_car_4.718109330151931" accel="1.0" decel="5.0" sigma="0.0" length="4.5" maxSpeed="1.310585925042203" /><vType id="vType_car_18.129072673825576" accel="1.0" decel="5.0" sigma="0.0" length="4.5" maxSpeed="5.035853520507104" /><vType id="vType_car_14.790469498662267" accel="1.0" decel="5.0" sigma="0.0" length="4.5" maxSpeed="4.108463749628408" /><vType id="vType_car_4.398538371239514" accel="1.0" decel="5.0" sigma="0.0" length="4.5" maxSpeed="1.2218162142331983" /><vType id="vType_car_3.50528955088956" accel="1.0" decel="5.0" sigma="0.0" length="4.5" maxSpeed="0.9736915419137666" /><vType id="vType_car_4.439449652140409" accel="1.0" decel="5.0" sigma="0.0" length="4.5" maxSpeed="1.2331804589278914" /><vType id="vType_car_16.15873694409671" accel="1.0" decel="5.0" sigma="0.0" length="4.5" maxSpeed="4.488538040026864" /><vType id="vType_car_27.360564648861153" accel="1.0" decel="5.0" sigma="0.0" length="4.5" maxSpeed="7.600156846905875" /><vType id="vType_car_21.572439443142937" accel="1.0" decel="5.0" sigma="0.0" length="4.5" maxSpeed="5.992344289761927" /><vType id="vType_car_5.405194675808221" accel="1.0" decel="5.0" sigma="0.0" length="4.5" maxSpeed="1.5014429655022834" /><vType id="vType_car_15.777468776377418" accel="1.0" decel="5.0" sigma="0.0" length="4.5" maxSpeed="4.382630215660394" /><vType id="vType_car_0.6868593304618822" accel="1.0" decel="5.0" sigma="0.0" length="4.5" maxSpeed="0.19079425846163395" /><vType id="vType_car_24.18174198079493" accel="1.0" decel="5.0" sigma="0.0" length="4.5" maxSpeed="6.717150550220813" /><vType id="vType_car_14.515435555112207" accel="1.0" decel="5.0" sigma="0.0" length="4.5" maxSpeed="4.032065431975613" /><vType id="vType_car_22.64135508823506" accel="1.0" decel="5.0" sigma="0.0" length="4.5" maxSpeed="6.289265302287516" /><vType id="vType_car_4.095768855541375" accel="1.0" decel="5.0" sigma="0.0" length="4.5" maxSpeed="1.1377135709837154" /><vType id="vType_car_12.285562336846422" accel="1.0" decel="5.0" sigma="0.0" length="4.5" maxSpeed="3.4126562046795614" /><vType id="vType_car_28.633549088720184" accel="1.0" decel="5.0" sigma="0.0" length="4.5" maxSpeed="7.953763635755607" /><vType id="vType_car_4.836260432625404" accel="1.0" decel="5.0" sigma="0.0" length="4.5" maxSpeed="1.343405675729279" /><vType id="vType_car_4.193303372474235" accel="1.0" decel="5.0" sigma="0.0" length="4.5" maxSpeed="1.164806492353954" /><vType id="vType_car_25.469344023283327" accel="1.0" decel="5.0" sigma="0.0" length="4.5" maxSpeed="7.074817784245369" /><vType id="vType_car_3.575583523249102" accel="1.0" decel="5.0" sigma="0.0" length="4.5" maxSpeed="0.9932176453469727" /><vType id="vType_car_17.70288374040618" accel="1.0" decel="5.0" sigma="0.0" length="4.5" maxSpeed="4.917467705668383" /><vType id="vType_car_23.693906538005393" accel="1.0" decel="5.0" sigma="0.0" length="4.5" maxSpeed="6.581640705001498" /><vType id="vType_car_22.5334638254853" accel="1.0" decel="5.0" sigma="0.0" length="4.5" maxSpeed="6.2592955070792495" /><vType id="vType_car_28.592914087124022" accel="1.0" decel="5.0" sigma="0.0" length="4.5" maxSpeed="7.942476135312228" /><vType id="vType_car_8.16222780182302" accel="1.0" decel="5.0" sigma="0.0" length="4.5" maxSpeed="2.2672855005063943" /><vType id="vType_truck_18.299241462613672" accel="1.0" decel="5.0" sigma="0.0" length="8" maxSpeed="5.083122628503798" /><vType id="vType_car_20.248947866084684" accel="1.0" decel="5.0" sigma="0.0" length="4.5" maxSpeed="5.624707740579079" /><vType id="vType_car_21.35115141058419" accel="1.0" decel="5.0" sigma="0.0" length="4.5" maxSpeed="5.930875391828942" /><vType id="vType_car_5.342511793199336" accel="1.0" decel="5.0" sigma="0.0" length="4.5" maxSpeed="1.484031053666482" /><vType id="vType_car_20.836804291855756" accel="1.0" decel="5.0" sigma="0.0" length="4.5" maxSpeed="5.788001192182154" /><vType id="vType_car_14.673778922196243" accel="1.0" decel="5.0" sigma="0.0" length="4.5" maxSpeed="4.076049700610067" /><vType id="vType_car_26.685040090522566" accel="1.0" decel="5.0" sigma="0.0" length="4.5" maxSpeed="7.412511136256268" /><vType id="vType_car_16.008228832038583" accel="1.0" decel="5.0" sigma="0.0" length="4.5" maxSpeed="4.446730231121829" /><vType id="vType_truck_18.927914821444425" accel="1.0" decel="5.0" sigma="0.0" length="8" maxSpeed="5.257754117067896" /><vType id="vType_car_3.576549877369318" accel="1.0" decel="5.0" sigma="0.0" length="4.5" maxSpeed="0.9934860770470327" /><vType id="vType_car_7.211654625355821" accel="1.0" decel="5.0" sigma="0.0" length="4.5" maxSpeed="2.0032373959321723" /><vType id="vType_car_4.385782885677614" accel="1.0" decel="5.0" sigma="0.0" length="4.5" maxSpeed="1.218273023799337" /><vType id="vType_car_4.2844062125814455" accel="1.0" decel="5.0" sigma="0.0" length="4.5" maxSpeed="1.1901128368281793" /><vType id="vType_car_5.444979739236814" accel="1.0" decel="5.0" sigma="0.0" length="4.5" maxSpeed="1.512494372010226" /><vType id="vType_car_4.685265128881641" accel="1.0" decel="5.0" sigma="0.0" length="4.5" maxSpeed="1.3014625358004557" /><vType id="vType_car_4.72215789692544" accel="1.0" decel="5.0" sigma="0.0" length="4.5" maxSpeed="1.3117105269237332" /><route id="route_north_to_east" edges="north_to_center center_to_east" /><route id="route_north_to_south" edges="north_to_center center_to_south" /><route id="route_north_to_west" edges="north_to_center center_to_west" /><route id="route_east_to_west" edges="east_to_center center_to_west" /><route id="route_east_to_south" edges="east_to_center center_to_south" /><route id="route_east_to_north" edges="east_to_center center_to_north" /><route id="route_south_to_west" edges="south_to_center center_to_west" /><route id="route_south_to_north" edges="south_to_center center_to_north" /><route id="route_south_to_east" edges="south_to_center center_to_east" /><route id="route_west_to_south" edges="west_to_center center_to_south" /><route id="route_west_to_north" edges="west_to_center center_to_north" /><route id="route_west_to_east" edges="west_to_center center_to_east" /><vehicle id="veh638" type="vType_car_26.6301757776693" route="route_north_to_east" depart="0.03" /><vehicle id="veh641" type="vType_car_34.67754831775276" route="route_north_to_south" depart="0.03" /><vehicle id="veh643" type="vType_car_19.135318149610153" route="route_north_to_east" depart="0.03" /><vehicle id="veh644" type="vType_car_28.890016262010437" route="route_north_to_south" depart="0.07" /><vehicle id="veh645" type="vType_car_17.87595517578592" route="route_north_to_east" depart="1.43" /><vehicle id="veh647" type="vType_car_24.036446776849935" route="route_north_to_west" depart="2.47" /><vehicle id="veh648" type="vType_car_11.224631220568705" route="route_north_to_east" depart="3.14" /><vehicle id="veh649" type="vType_car_32.024638821208775" route="route_north_to_south" depart="4.04" /><vehicle id="veh650" type="vType_car_26.659656705712983" route="route_north_to_south" depart="5.80" /><vehicle id="veh651" type="vType_car_18.28678977256698" route="route_north_to_east" depart="6.14" /><vehicle id="veh653" type="vType_car_34.2127696942838" route="route_north_to_south" depart="7.90" /><vehicle id="veh654" type="vType_car_13.802222497536404" route="route_north_to_east" depart="7.94" /><vehicle id="veh655" type="vType_car_13.870385173947216" route="route_east_to_north" depart="9.01" /><vehicle id="veh656" type="vType_car_30.590764672558418" route="route_north_to_south" depart="9.57" /><vehicle id="veh657" type="vType_car_16.969981079705867" route="route_north_to_east" depart="10.84" /><vehicle id="veh658" type="vType_car_31.96809163929512" route="route_north_to_south" depart="11.84" /><vehicle id="veh659" type="vType_car_17.061686558118733" route="route_north_to_east" depart="13.01" /><vehicle id="veh660" type="vType_car_20.118582209083947" route="route_north_to_west" depart="13.71" /><vehicle id="veh661" type="vType_car_18.761124770835703" route="route_north_to_east" depart="14.68" /><vehicle id="veh662" type="vType_car_17.72232587931921" route="route_north_to_east" depart="15.24" /><vehicle id="veh664" type="vType_car_25.88758126163781" route="route_north_to_south" depart="16.44" /><vehicle id="veh665" type="vType_car_29.536405915963165" route="route_north_to_south" depart="18.11" /><vehicle id="veh668" type="vType_car_17.65105333686696" route="route_north_to_east" depart="18.78" /><vehicle id="veh669" type="vType_car_18.360158042488433" route="route_north_to_east" depart="20.11" /><vehicle id="veh670" type="vType_car_20.334250308438957" route="route_north_to_west" depart="20.98" /><vehicle id="veh678" type="vType_car_22.46840908743305" route="route_north_to_west" depart="22.78" /><vehicle id="veh680" type="vType_car_17.741267581629394" route="route_north_to_east" depart="23.75" /><vehicle id="veh682" type="vType_car_20.74099813884307" route="route_north_to_west" depart="24.05" /><vehicle id="veh689" type="vType_car_14.790469498662267" route="route_north_to_east" depart="26.52" /><vehicle id="veh695" type="vType_car_16.15873694409671" route="route_north_to_east" depart="28.68" /><vehicle id="veh696" type="vType_car_27.360564648861153" route="route_north_to_south" depart="28.72" /><vehicle id="veh697" type="vType_car_21.572439443142937" route="route_north_to_west" depart="28.72" /><vehicle id="veh701" type="vType_car_15.777468776377418" route="route_north_to_east" depart="31.22" /><vehicle id="veh703" type="vType_car_24.18174198079493" route="route_north_to_west" depart="32.19" /><vehicle id="veh705" type="vType_car_14.515435555112207" route="route_north_to_east" depart="32.82" /><vehicle id="veh706" type="vType_car_22.64135508823506" route="route_north_to_west" depart="33.29" /><vehicle id="veh708" type="vType_car_12.285562336846422" route="route_north_to_east" depart="34.42" /><vehicle id="veh709" type="vType_car_28.633549088720184" route="route_north_to_south" depart="34.45" /><vehicle id="veh716" type="vType_car_25.469344023283327" route="route_north_to_south" depart="38.56" /><vehicle id="veh718" type="vType_car_17.70288374040618" route="route_south_to_north" depart="39.32" /><vehicle id="veh721" type="vType_car_22.5334638254853" route="route_north_to_west" depart="40.59" /><vehicle id="veh731" type="vType_car_28.592914087124022" route="route_north_to_south" depart="42.39" /><vehicle id="veh734" type="vType_car_20.248947866084684" route="route_north_to_west" depart="45.26" /><vehicle id="veh735" type="vType_car_21.35115141058419" route="route_north_to_west" depart="47.53" /><vehicle id="veh738" type="vType_car_20.836804291855756" route="route_north_to_south" depart="49.06" /><vehicle id="veh745" type="vType_car_14.673778922196243" route="route_north_to_east" depart="50.43" /><vehicle id="veh746" type="vType_car_26.685040090522566" route="route_north_to_south" depart="52.30" /><vehicle id="veh747" type="vType_car_16.008228832038583" route="route_north_to_east" depart="52.83" /></routes>