<?xml version='1.0' encoding='utf-8'?>
<routes><vType id="vType_car_20.343104938145444" accel="1.0" decel="5.0" sigma="0.0" length="4.5" maxSpeed="5.650862482818179" /><vType id="vType_car_28.49659775556899" accel="1.0" decel="5.0" sigma="0.0" length="4.5" maxSpeed="7.9157215987691645" /><vType id="vType_car_53.135637412640236" accel="1.0" decel="5.0" sigma="0.0" length="4.5" maxSpeed="14.759899281288954" /><vType id="vType_car_27.83075271719945" accel="1.0" decel="5.0" sigma="0.0" length="4.5" maxSpeed="7.730764643666514" /><vType id="vType_car_54.98173218439583" accel="1.0" decel="5.0" sigma="0.0" length="4.5" maxSpeed="15.272703384554397" /><vType id="vType_car_16.511611187964323" accel="1.0" decel="5.0" sigma="0.0" length="4.5" maxSpeed="4.586558663323423" /><vType id="vType_car_56.428987132596504" accel="1.0" decel="5.0" sigma="0.0" length="4.5" maxSpeed="15.674718647943473" /><vType id="vType_car_51.250239378823316" accel="1.0" decel="5.0" sigma="0.0" length="4.5" maxSpeed="14.236177605228699" /><vType id="vType_car_9.776662741968803" accel="1.0" decel="5.0" sigma="0.0" length="4.5" maxSpeed="2.71573965054689" /><vType id="vType_car_27.594376971529243" accel="1.0" decel="5.0" sigma="0.0" length="4.5" maxSpeed="7.665104714313679" /><vType id="vType_car_15.04768978017147" accel="1.0" decel="5.0" sigma="0.0" length="4.5" maxSpeed="4.179913827825408" /><vType id="vType_car_29.143015598532553" accel="1.0" decel="5.0" sigma="0.0" length="4.5" maxSpeed="8.095282110703486" /><vType id="vType_car_17.279253043833037" accel="1.0" decel="5.0" sigma="0.0" length="4.5" maxSpeed="4.799792512175844" /><vType id="vType_car_1.0885285614312685" accel="1.0" decel="5.0" sigma="0.0" length="4.5" maxSpeed="0.30236904484201904" /><vType id="vType_car_19.96125024169349" accel="1.0" decel="5.0" sigma="0.0" length="4.5" maxSpeed="5.544791733803748" /><vType id="vType_car_31.447825719445355" accel="1.0" decel="5.0" sigma="0.0" length="4.5" maxSpeed="8.735507144290375" /><vType id="vType_car_19.906426001772147" accel="1.0" decel="5.0" sigma="0.0" length="4.5" maxSpeed="5.529562778270041" /><vType id="vType_car_23.54486703682437" accel="1.0" decel="5.0" sigma="0.0" length="4.5" maxSpeed="6.540240843562325" /><vType id="vType_car_34.914478080226736" accel="1.0" decel="5.0" sigma="0.0" length="4.5" maxSpeed="9.698466133396316" /><vType id="vType_car_6.643421615839724" accel="1.0" decel="5.0" sigma="0.0" length="4.5" maxSpeed="1.8453948932888122" /><vType id="vType_car_51.91167039543238" accel="1.0" decel="5.0" sigma="0.0" length="4.5" maxSpeed="14.419908443175661" /><vType id="vType_car_16.185509806994606" accel="1.0" decel="5.0" sigma="0.0" length="4.5" maxSpeed="4.49597494638739" /><vType id="vType_car_51.67454812989907" accel="1.0" decel="5.0" sigma="0.0" length="4.5" maxSpeed="14.354041147194186" /><vType id="vType_car_15.899968928262163" accel="1.0" decel="5.0" sigma="0.0" length="4.5" maxSpeed="4.416658035628378" /><vType id="vType_car_33.8039557037268" accel="1.0" decel="5.0" sigma="0.0" length="4.5" maxSpeed="9.389987695479666" /><vType id="vType_car_4.762199511973074" accel="1.0" decel="5.0" sigma="0.0" length="4.5" maxSpeed="1.3228331977702983" /><vType id="vType_truck_88.90340175589157" accel="1.0" decel="5.0" sigma="0.0" length="8" maxSpeed="24.695389376636545" /><vType id="vType_car_15.503289739472024" accel="1.0" decel="5.0" sigma="0.0" length="4.5" maxSpeed="4.306469372075562" /><vType id="vType_car_45.14492847280536" accel="1.0" decel="5.0" sigma="0.0" length="4.5" maxSpeed="12.5402579091126" /><vType id="vType_car_19.698142513535373" accel="1.0" decel="5.0" sigma="0.0" length="4.5" maxSpeed="5.471706253759826" /><vType id="vType_car_10.662616086822897" accel="1.0" decel="5.0" sigma="0.0" length="4.5" maxSpeed="2.9618378018952494" /><vType id="vType_car_7.5895167101449825" accel="1.0" decel="5.0" sigma="0.0" length="4.5" maxSpeed="2.108199086151384" /><vType id="vType_car_21.134336822958915" accel="1.0" decel="5.0" sigma="0.0" length="4.5" maxSpeed="5.870649117488587" /><vType id="vType_car_9.112513180658363" accel="1.0" decel="5.0" sigma="0.0" length="4.5" maxSpeed="2.5312536612939898" /><vType id="vType_car_90.31949168614123" accel="1.0" decel="5.0" sigma="0.0" length="4.5" maxSpeed="25.088747690594786" /><vType id="vType_car_28.471228986307015" accel="1.0" decel="5.0" sigma="0.0" length="4.5" maxSpeed="7.908674718418615" /><vType id="vType_car_11.733089016581168" accel="1.0" decel="5.0" sigma="0.0" length="4.5" maxSpeed="3.2591913934947687" /><vType id="vType_car_96.90435193459098" accel="1.0" decel="5.0" sigma="0.0" length="4.5" maxSpeed="26.917875537386383" /><vType id="vType_car_45.58688080725877" accel="1.0" decel="5.0" sigma="0.0" length="4.5" maxSpeed="12.66302244646077" /><vType id="vType_car_4.146501633520839" accel="1.0" decel="5.0" sigma="0.0" length="4.5" maxSpeed="1.1518060093113442" /><vType id="vType_car_56.595226208007745" accel="1.0" decel="5.0" sigma="0.0" length="4.5" maxSpeed="15.72089616889104" /><vType id="vType_car_4.013264373445453" accel="1.0" decel="5.0" sigma="0.0" length="4.5" maxSpeed="1.1147956592904036" /><vType id="vType_car_62.44243711088251" accel="1.0" decel="5.0" sigma="0.0" length="4.5" maxSpeed="17.345121419689587" /><vType id="vType_car_3.9002716347296364" accel="1.0" decel="5.0" sigma="0.0" length="4.5" maxSpeed="1.083408787424899" /><vType id="vType_car_4.390353917409069" accel="1.0" decel="5.0" sigma="0.0" length="4.5" maxSpeed="1.2195427548358524" /><vType id="vType_car_8.962424154072888" accel="1.0" decel="5.0" sigma="0.0" length="4.5" maxSpeed="2.4895622650202465" /><vType id="vType_car_11.75120542179527" accel="1.0" decel="5.0" sigma="0.0" length="4.5" maxSpeed="3.2642237282764635" /><vType id="vType_car_3.963016945772159" accel="1.0" decel="5.0" sigma="0.0" length="4.5" maxSpeed="1.1008380404922664" /><vType id="vType_car_62.22040290390975" accel="1.0" decel="5.0" sigma="0.0" length="4.5" maxSpeed="17.283445251086043" /><vType id="vType_car_4.115260893959385" accel="1.0" decel="5.0" sigma="0.0" length="4.5" maxSpeed="1.143128026099829" /><vType id="vType_car_49.80893064481234" accel="1.0" decel="5.0" sigma="0.0" length="4.5" maxSpeed="13.835814068003428" /><vType id="vType_car_58.843207151600595" accel="1.0" decel="5.0" sigma="0.0" length="4.5" maxSpeed="16.345335319889053" /><vType id="vType_car_5.065558722690865" accel="1.0" decel="5.0" sigma="0.0" length="4.5" maxSpeed="1.407099645191907" /><vType id="vType_car_49.23823993503763" accel="1.0" decel="5.0" sigma="0.0" length="4.5" maxSpeed="13.677288870843787" /><vType id="vType_car_4.9611893818239166" accel="1.0" decel="5.0" sigma="0.0" length="4.5" maxSpeed="1.3781081616177546" /><vType id="vType_car_58.56893198054724" accel="1.0" decel="5.0" sigma="0.0" length="4.5" maxSpeed="16.269147772374232" /><vType id="vType_car_25.11934595610984" accel="1.0" decel="5.0" sigma="0.0" length="4.5" maxSpeed="6.9775960989194" /><vType id="vType_car_3.9138558638170267" accel="1.0" decel="5.0" sigma="0.0" length="4.5" maxSpeed="1.0871821843936185" /><vType id="vType_car_47.3314900541119" accel="1.0" decel="5.0" sigma="0.0" length="4.5" maxSpeed="13.147636126142196" /><vType id="vType_car_3.48329139658006" accel="1.0" decel="5.0" sigma="0.0" length="4.5" maxSpeed="0.967580943494461" /><vType id="vType_car_2.4585495762763108" accel="1.0" decel="5.0" sigma="0.0" length="4.5" maxSpeed="0.6829304378545308" /><vType id="vType_car_10.571851112729984" accel="1.0" decel="5.0" sigma="0.0" length="4.5" maxSpeed="2.9366253090916623" /><vType id="vType_car_61.568631209410256" accel="1.0" decel="5.0" sigma="0.0" length="4.5" maxSpeed="17.102397558169514" /><vType id="vType_car_50.14460800488945" accel="1.0" decel="5.0" sigma="0.0" length="4.5" maxSpeed="13.929057779135958" /><vType id="vType_car_12.149511808145533" accel="1.0" decel="5.0" sigma="0.0" length="4.5" maxSpeed="3.374864391151537" /><vType id="vType_car_0.12011349643379514" accel="1.0" decel="5.0" sigma="0.0" length="4.5" maxSpeed="0.03336486012049865" /><vType id="vType_car_3.950232134989592" accel="1.0" decel="5.0" sigma="0.0" length="4.5" maxSpeed="1.0972867041637755" /><vType id="vType_car_12.542365228399563" accel="1.0" decel="5.0" sigma="0.0" length="4.5" maxSpeed="3.4839903412221007" /><vType id="vType_car_1.8867828398141988" accel="1.0" decel="5.0" sigma="0.0" length="4.5" maxSpeed="0.524106344392833" /><vType id="vType_car_60.346483537406975" accel="1.0" decel="5.0" sigma="0.0" length="4.5" maxSpeed="16.76291209372416" /><vType id="vType_car_3.3381542550558905" accel="1.0" decel="5.0" sigma="0.0" length="4.5" maxSpeed="0.9272650708488585" /><vType id="vType_car_54.84517050429911" accel="1.0" decel="5.0" sigma="0.0" length="4.5" maxSpeed="15.23476958452753" /><vType id="vType_car_3.7929648503309026" accel="1.0" decel="5.0" sigma="0.0" length="4.5" maxSpeed="1.0536013473141397" /><vType id="vType_truck_9.191446771403431" accel="1.0" decel="5.0" sigma="0.0" length="8" maxSpeed="2.553179658723175" /><vType id="vType_car_4.073867600697524" accel="1.0" decel="5.0" sigma="0.0" length="4.5" maxSpeed="1.1316298890826455" /><vType id="vType_bus_51.85592943460267" accel="1.0" decel="5.0" sigma="0.0" length="13" maxSpeed="14.404424842945186" /><vType id="vType_car_3.228233289277674" accel="1.0" decel="5.0" sigma="0.0" length="4.5" maxSpeed="0.8967314692437983" /><vType id="vType_car_45.79172333851003" accel="1.0" decel="5.0" sigma="0.0" length="4.5" maxSpeed="12.71992314958612" /><vType id="vType_car_3.210092071358094" accel="1.0" decel="5.0" sigma="0.0" length="4.5" maxSpeed="0.891692242043915" /><vType id="vType_car_16.074729130121508" accel="1.0" decel="5.0" sigma="0.0" length="4.5" maxSpeed="4.465202536144863" /><vType id="vType_car_54.826932363727714" accel="1.0" decel="5.0" sigma="0.0" length="4.5" maxSpeed="15.229703434368808" /><vType id="vType_car_60.461834028552424" accel="1.0" decel="5.0" sigma="0.0" length="4.5" maxSpeed="16.794953896820118" /><vType id="vType_car_3.4832913965800594" accel="1.0" decel="5.0" sigma="0.0" length="4.5" maxSpeed="0.9675809434944609" /><vType id="vType_car_46.180062155475525" accel="1.0" decel="5.0" sigma="0.0" length="4.5" maxSpeed="12.827795043187646" /><vType id="vType_car_17.86641644282634" accel="1.0" decel="5.0" sigma="0.0" length="4.5" maxSpeed="4.962893456340649" /><vType id="vType_car_3.652849695309782" accel="1.0" decel="5.0" sigma="0.0" length="4.5" maxSpeed="1.014680470919384" /><vType id="vType_car_1.4564719167697293" accel="1.0" decel="5.0" sigma="0.0" length="4.5" maxSpeed="0.4045755324360359" /><vType id="vType_car_29.8285062649973" accel="1.0" decel="5.0" sigma="0.0" length="4.5" maxSpeed="8.285696184721472" /><vType id="vType_car_2.995467548914254" accel="1.0" decel="5.0" sigma="0.0" length="4.5" maxSpeed="0.8320743191428484" /><vType id="vType_car_5.259351153864672" accel="1.0" decel="5.0" sigma="0.0" length="4.5" maxSpeed="1.46093087607352" /><vType id="vType_car_12.908556520192992" accel="1.0" decel="5.0" sigma="0.0" length="4.5" maxSpeed="3.5857101444980533" /><vType id="vType_car_44.353105871314774" accel="1.0" decel="5.0" sigma="0.0" length="4.5" maxSpeed="12.320307186476326" /><vType id="vType_car_5.2374719629065405" accel="1.0" decel="5.0" sigma="0.0" length="4.5" maxSpeed="1.4548533230295946" /><vType id="vType_car_2.35122169269154" accel="1.0" decel="5.0" sigma="0.0" length="4.5" maxSpeed="0.653117136858761" /><vType id="vType_car_15.716923671089571" accel="1.0" decel="5.0" sigma="0.0" length="4.5" maxSpeed="4.365812130858214" /><vType id="vType_car_13.61316557225395" accel="1.0" decel="5.0" sigma="0.0" length="4.5" maxSpeed="3.7814348811816525" /><vType id="vType_car_8.679354742826549" accel="1.0" decel="5.0" sigma="0.0" length="4.5" maxSpeed="2.4109318730073745" /><vType id="vType_car_21.915813719967378" accel="1.0" decel="5.0" sigma="0.0" length="4.5" maxSpeed="6.087726033324271" /><vType id="vType_car_28.137205315768234" accel="1.0" decel="5.0" sigma="0.0" length="4.5" maxSpeed="7.815890365491176" /><vType id="vType_car_20.302805165418015" accel="1.0" decel="5.0" sigma="0.0" length="4.5" maxSpeed="5.639668101505004" /><vType id="vType_car_2.9424106442279117" accel="1.0" decel="5.0" sigma="0.0" length="4.5" maxSpeed="0.8173362900633088" /><vType id="vType_car_8.645151367901835" accel="1.0" decel="5.0" sigma="0.0" length="4.5" maxSpeed="2.4014309355282877" /><vType id="vType_car_5.962240932480634" accel="1.0" decel="5.0" sigma="0.0" length="4.5" maxSpeed="1.656178036800176" /><vType id="vType_car_0.24818451200632924" accel="1.0" decel="5.0" sigma="0.0" length="4.5" maxSpeed="0.06894014222398034" /><vType id="vType_car_18.412966481471518" accel="1.0" decel="5.0" sigma="0.0" length="4.5" maxSpeed="5.114712911519866" /><route id="route_north_to_east" edges="north_to_center center_to_east" /><route id="route_north_to_south" edges="north_to_center center_to_south" /><route id="route_north_to_west" edges="north_to_center center_to_west" /><route id="route_east_to_west" edges="east_to_center center_to_west" /><route id="route_east_to_south" edges="east_to_center center_to_south" /><route id="route_east_to_north" edges="east_to_center center_to_north" /><route id="route_south_to_west" edges="south_to_center center_to_west" /><route id="route_south_to_north" edges="south_to_center center_to_north" /><route id="route_south_to_east" edges="south_to_center center_to_east" /><route id="route_west_to_south" edges="west_to_center center_to_south" /><route id="route_west_to_north" edges="west_to_center center_to_north" /><route id="route_west_to_east" edges="west_to_center center_to_east" /><vehicle id="veh776" type="vType_car_20.343104938145444" route="route_south_to_north" depart="0.04" /><vehicle id="veh824" type="vType_car_28.49659775556899" route="route_east_to_south" depart="0.04" /><vehicle id="veh843" type="vType_car_16.511611187964323" route="route_north_to_west" depart="2.60" /><vehicle id="veh844" type="vType_car_56.428987132596504" route="route_east_to_west" depart="4.56" /><vehicle id="veh845" type="vType_car_51.250239378823316" route="route_east_to_west" depart="4.56" /><vehicle id="veh847" type="vType_car_9.776662741968803" route="route_north_to_east" depart="7.52" /><vehicle id="veh850" type="vType_car_27.594376971529243" route="route_east_to_south" depart="10.42" /><vehicle id="veh854" type="vType_car_15.04768978017147" route="route_south_to_east" depart="11.50" /><vehicle id="veh855" type="vType_car_29.143015598532553" route="route_south_to_west" depart="12.01" /><vehicle id="veh857" type="vType_car_17.279253043833037" route="route_south_to_east" depart="15.41" /><vehicle id="veh861" type="vType_car_19.96125024169349" route="route_east_to_west" depart="16.24" /><vehicle id="veh864" type="vType_car_31.447825719445355" route="route_south_to_north" depart="19.06" /><vehicle id="veh865" type="vType_car_19.906426001772147" route="route_east_to_west" depart="19.28" /><vehicle id="veh867" type="vType_car_23.54486703682437" route="route_east_to_west" depart="22.68" /><vehicle id="veh870" type="vType_car_34.914478080226736" route="route_south_to_north" depart="22.82" /><vehicle id="veh876" type="vType_car_51.91167039543238" route="route_west_to_east" depart="40.01" /><vehicle id="veh877" type="vType_car_16.185509806994606" route="route_west_to_north" depart="40.01" /><vehicle id="veh878" type="vType_car_51.67454812989907" route="route_west_to_east" depart="40.84" /><vehicle id="veh879" type="vType_car_15.899968928262163" route="route_west_to_north" depart="41.42" /><vehicle id="veh881" type="vType_car_33.8039557037268" route="route_east_to_west" depart="42.18" /><vehicle id="veh887" type="vType_car_45.14492847280536" route="route_east_to_west" depart="53.17" /><vehicle id="veh890" type="vType_car_19.698142513535373" route="route_west_to_north" depart="53.97" /><vehicle id="veh893" type="vType_car_21.134336822958915" route="route_west_to_north" depart="56.54" /><vehicle id="veh895" type="vType_car_90.31949168614123" route="route_west_to_east" depart="58.89" /><vehicle id="veh901" type="vType_car_96.90435193459098" route="route_west_to_east" depart="61.71" /><vehicle id="veh902" type="vType_car_45.58688080725877" route="route_west_to_south" depart="62.72" /><vehicle id="veh907" type="vType_car_56.595226208007745" route="route_west_to_east" depart="64.50" /><vehicle id="veh911" type="vType_car_62.44243711088251" route="route_west_to_east" depart="65.44" /><vehicle id="veh916" type="vType_car_11.75120542179527" route="route_east_to_north" depart="67.28" /><vehicle id="veh919" type="vType_car_62.22040290390975" route="route_west_to_east" depart="70.86" /><vehicle id="veh921" type="vType_car_49.80893064481234" route="route_west_to_south" depart="72.56" /><vehicle id="veh922" type="vType_car_58.843207151600595" route="route_east_to_west" depart="73.03" /><vehicle id="veh925" type="vType_car_49.23823993503763" route="route_west_to_east" depart="73.61" /><vehicle id="veh929" type="vType_car_58.56893198054724" route="route_west_to_east" depart="74.62" /><vehicle id="veh930" type="vType_car_25.11934595610984" route="route_west_to_north" depart="75.56" /><vehicle id="veh933" type="vType_car_47.3314900541119" route="route_west_to_east" depart="76.29" /><vehicle id="veh938" type="vType_car_10.571851112729984" route="route_west_to_north" depart="80.19" /><vehicle id="veh940" type="vType_car_61.568631209410256" route="route_west_to_east" depart="81.21" /><vehicle id="veh941" type="vType_car_50.14460800488945" route="route_east_to_west" depart="81.53" /><vehicle id="veh942" type="vType_car_12.149511808145533" route="route_south_to_east" depart="82.58" /><vehicle id="veh947" type="vType_car_12.542365228399563" route="route_east_to_north" depart="85.22" /><vehicle id="veh952" type="vType_car_60.346483537406975" route="route_west_to_east" depart="86.24" /><vehicle id="veh956" type="vType_car_54.84517050429911" route="route_east_to_west" depart="87.39" /><vehicle id="veh965" type="vType_bus_51.85592943460267" route="route_east_to_west" depart="92.06" /><vehicle id="veh972" type="vType_car_45.79172333851003" route="route_east_to_west" depart="94.23" /><vehicle id="veh978" type="vType_car_16.074729130121508" route="route_south_to_east" depart="97.20" /><vehicle id="veh981" type="vType_car_54.826932363727714" route="route_east_to_west" depart="98.10" /><vehicle id="veh982" type="vType_car_60.461834028552424" route="route_east_to_west" depart="99.73" /><vehicle id="veh988" type="vType_car_46.180062155475525" route="route_east_to_west" depart="103.13" /><vehicle id="veh984" type="vType_car_17.86641644282634" route="route_west_to_north" depart="103.42" /><vehicle id="veh1002" type="vType_car_44.353105871314774" route="route_east_to_west" depart="107.98" /><vehicle id="veh1006" type="vType_car_15.716923671089571" route="route_east_to_south" depart="110.69" /><vehicle id="veh1011" type="vType_car_21.915813719967378" route="route_west_to_north" depart="111.19" /><vehicle id="veh1018" type="vType_car_20.302805165418015" route="route_south_to_east" depart="114.38" /></routes>