<?xml version="1.0" encoding="utf-8"?>
<routes>
	<vType id="vType_car_28.26594284222926" accel="1.0" decel="5.0" sigma="0.0" length="4.5" maxSpeed="7.851650789508128" />
	<vType id="vType_car_9.484856468490955" accel="1.0" decel="5.0" sigma="0.0" length="4.5" maxSpeed="2.6346823523585985" />
	<vType id="vType_car_13.53990569859582" accel="1.0" decel="5.0" sigma="0.0" length="4.5" maxSpeed="3.7610849162766167" />
	<vType id="vType_car_9.926141698037322" accel="1.0" decel="5.0" sigma="0.0" length="4.5" maxSpeed="2.757261582788145" />
	<vType id="vType_car_24.828935072970364" accel="1.0" decel="5.0" sigma="0.0" length="4.5" maxSpeed="6.896926409158434" />
	<vType id="vType_car_9.675349372201797" accel="1.0" decel="5.0" sigma="0.0" length="4.5" maxSpeed="2.6875970478338327" />
	<vType id="vType_car_8.986323173319967" accel="1.0" decel="5.0" sigma="0.0" length="4.5" maxSpeed="2.4962008814777685" />
	<vType id="vType_car_10.071848610730562" accel="1.0" decel="5.0" sigma="0.0" length="4.5" maxSpeed="2.797735725202934" />
	<vType id="vType_car_46.69946035236279" accel="1.0" decel="5.0" sigma="0.0" length="4.5" maxSpeed="12.972072320100775" />
	<vType id="vType_car_34.3948400294439" accel="1.0" decel="5.0" sigma="0.0" length="4.5" maxSpeed="9.554122230401083" />
	<vType id="vType_car_3.6836136080051327" accel="1.0" decel="5.0" sigma="0.0" length="4.5" maxSpeed="1.023226002223648" />
	<vType id="vType_car_38.19790260333015" accel="1.0" decel="5.0" sigma="0.0" length="4.5" maxSpeed="10.61052850092504" />
	<vType id="vType_car_43.48547774470627" accel="1.0" decel="5.0" sigma="0.0" length="4.5" maxSpeed="12.079299373529519" />
	<vType id="vType_car_49.000279462486255" accel="1.0" decel="5.0" sigma="0.0" length="4.5" maxSpeed="13.611188739579514" />
	<vType id="vType_car_28.57453452095041" accel="1.0" decel="5.0" sigma="0.0" length="4.5" maxSpeed="7.937370700264003" />
	<vType id="vType_car_14.423976485795725" accel="1.0" decel="5.0" sigma="0.0" length="4.5" maxSpeed="4.006660134943257" />
	<vType id="vType_car_41.540625146401595" accel="1.0" decel="5.0" sigma="0.0" length="4.5" maxSpeed="11.539062540667109" />
	<vType id="vType_car_44.23549767314329" accel="1.0" decel="5.0" sigma="0.0" length="4.5" maxSpeed="12.287638242539803" />
	<vType id="vType_car_3.9870454944693963" accel="1.0" decel="5.0" sigma="0.0" length="4.5" maxSpeed="1.10751263735261" />
	<vType id="vType_car_39.38256405208129" accel="1.0" decel="5.0" sigma="0.0" length="4.5" maxSpeed="10.939601125578136" />
	<vType id="vType_car_6.015387013191827" accel="1.0" decel="5.0" sigma="0.0" length="4.5" maxSpeed="1.6709408369977297" />
	<vType id="vType_car_60.559820078635845" accel="1.0" decel="5.0" sigma="0.0" length="4.5" maxSpeed="16.822172244065513" />
	<vType id="vType_car_29.62462002883228" accel="1.0" decel="5.0" sigma="0.0" length="4.5" maxSpeed="8.229061119120077" />
	<vType id="vType_car_37.746896618150885" accel="1.0" decel="5.0" sigma="0.0" length="4.5" maxSpeed="10.485249060597468" />
	<vType id="vType_car_38.54676947698155" accel="1.0" decel="5.0" sigma="0.0" length="4.5" maxSpeed="10.707435965828209" />
	<vType id="vType_car_19.899391422389805" accel="1.0" decel="5.0" sigma="0.0" length="4.5" maxSpeed="5.527608728441613" />
	<vType id="vType_car_12.290208073412298" accel="1.0" decel="5.0" sigma="0.0" length="4.5" maxSpeed="3.4139466870589716" />
	<vType id="vType_car_2.859392275886562" accel="1.0" decel="5.0" sigma="0.0" length="4.5" maxSpeed="0.7942756321907117" />
	<vType id="vType_car_21.568764895880378" accel="1.0" decel="5.0" sigma="0.0" length="4.5" maxSpeed="5.991323582188993" />
	<vType id="vType_car_10.153013732840444" accel="1.0" decel="5.0" sigma="0.0" length="4.5" maxSpeed="2.8202815924556788" />
	<vType id="vType_truck_83.37725524419832" accel="1.0" decel="5.0" sigma="0.0" length="8" maxSpeed="23.16034867894398" />
	<vType id="vType_car_7.958196730490643" accel="1.0" decel="5.0" sigma="0.0" length="4.5" maxSpeed="2.2106102029140673" />
	<vType id="vType_truck_94.01194990597088" accel="1.0" decel="5.0" sigma="0.0" length="8" maxSpeed="26.114430529436355" />
	<vType id="vType_car_2.7406805450926135" accel="1.0" decel="5.0" sigma="0.0" length="4.5" maxSpeed="0.7613001514146148" />
	<vType id="vType_car_77.81753840911914" accel="1.0" decel="5.0" sigma="0.0" length="4.5" maxSpeed="21.615982891421982" />
	<vType id="vType_car_12.042563701098361" accel="1.0" decel="5.0" sigma="0.0" length="4.5" maxSpeed="3.3451565836384334" />
	<vType id="vType_truck_15.61850191119713" accel="1.0" decel="5.0" sigma="0.0" length="8" maxSpeed="4.338472753110314" />
	<vType id="vType_car_18.135823430322883" accel="1.0" decel="5.0" sigma="0.0" length="4.5" maxSpeed="5.037728730645245" />
	<vType id="vType_car_69.908941275781" accel="1.0" decel="5.0" sigma="0.0" length="4.5" maxSpeed="19.41915035438361" />
	<vType id="vType_car_50.48775612816233" accel="1.0" decel="5.0" sigma="0.0" length="4.5" maxSpeed="14.024376702267315" />
	<vType id="vType_car_62.508898875735625" accel="1.0" decel="5.0" sigma="0.0" length="4.5" maxSpeed="17.363583021037673" />
	<vType id="vType_car_42.36663411619575" accel="1.0" decel="5.0" sigma="0.0" length="4.5" maxSpeed="11.768509476721041" />
	<vType id="vType_car_15.7770769535612" accel="1.0" decel="5.0" sigma="0.0" length="4.5" maxSpeed="4.3825213759892225" />
	<vType id="vType_car_47.744426053278936" accel="1.0" decel="5.0" sigma="0.0" length="4.5" maxSpeed="13.26234057035526" />
	<vType id="vType_car_55.40711737367292" accel="1.0" decel="5.0" sigma="0.0" length="4.5" maxSpeed="15.390865937131366" />
	<vType id="vType_car_15.916665195527095" accel="1.0" decel="5.0" sigma="0.0" length="4.5" maxSpeed="4.421295887646415" />
	<vType id="vType_car_62.180624227225216" accel="1.0" decel="5.0" sigma="0.0" length="4.5" maxSpeed="17.27239561867367" />
	<vType id="vType_car_74.62434738162078" accel="1.0" decel="5.0" sigma="0.0" length="4.5" maxSpeed="20.72898538378355" />
	<vType id="vType_car_48.01346609210343" accel="1.0" decel="5.0" sigma="0.0" length="4.5" maxSpeed="13.337073914473175" />
	<vType id="vType_car_21.63247158507841" accel="1.0" decel="5.0" sigma="0.0" length="4.5" maxSpeed="6.009019884744003" />
	<vType id="vType_car_41.26367493673616" accel="1.0" decel="5.0" sigma="0.0" length="4.5" maxSpeed="11.462131926871155" />
	<vType id="vType_car_57.45943219635725" accel="1.0" decel="5.0" sigma="0.0" length="4.5" maxSpeed="15.960953387877012" />
	<vType id="vType_car_35.08670714376474" accel="1.0" decel="5.0" sigma="0.0" length="4.5" maxSpeed="9.74630753993465" />
	<vType id="vType_car_4.253520948489433" accel="1.0" decel="5.0" sigma="0.0" length="4.5" maxSpeed="1.1815335968026202" />
	<vType id="vType_car_40.96928938310897" accel="1.0" decel="5.0" sigma="0.0" length="4.5" maxSpeed="11.380358161974714" />
	<vType id="vType_car_59.57189173016899" accel="1.0" decel="5.0" sigma="0.0" length="4.5" maxSpeed="16.54774770282472" />
	<vType id="vType_car_12.20714273530206" accel="1.0" decel="5.0" sigma="0.0" length="4.5" maxSpeed="3.39087298202835" />
	<vType id="vType_car_46.43456938893145" accel="1.0" decel="5.0" sigma="0.0" length="4.5" maxSpeed="12.898491496925402" />
	<vType id="vType_car_29.57863461288168" accel="1.0" decel="5.0" sigma="0.0" length="4.5" maxSpeed="8.216287392467132" />
	<vType id="vType_car_3.5237321294047885" accel="1.0" decel="5.0" sigma="0.0" length="4.5" maxSpeed="0.978814480390219" />
	<vType id="vType_car_39.83796833115553" accel="1.0" decel="5.0" sigma="0.0" length="4.5" maxSpeed="11.06610231420987" />
	<vType id="vType_car_33.554641322321665" accel="1.0" decel="5.0" sigma="0.0" length="4.5" maxSpeed="9.320733700644906" />
	<vType id="vType_car_48.94751941318751" accel="1.0" decel="5.0" sigma="0.0" length="4.5" maxSpeed="13.596533170329863" />
	<vType id="vType_car_12.337170878214014" accel="1.0" decel="5.0" sigma="0.0" length="4.5" maxSpeed="3.426991910615004" />
	<vType id="vType_car_49.15819745914355" accel="1.0" decel="5.0" sigma="0.0" length="4.5" maxSpeed="13.655054849762097" />
	<vType id="vType_car_4.146645850351549" accel="1.0" decel="5.0" sigma="0.0" length="4.5" maxSpeed="1.151846069542097" />
	<vType id="vType_car_3.885140552933485" accel="1.0" decel="5.0" sigma="0.0" length="4.5" maxSpeed="1.0792057091481904" />
	<vType id="vType_car_18.90568297517073" accel="1.0" decel="5.0" sigma="0.0" length="4.5" maxSpeed="5.2515786042140915" />
	<vType id="vType_car_17.634379210772636" accel="1.0" decel="5.0" sigma="0.0" length="4.5" maxSpeed="4.898438669659066" />
	<vType id="vType_car_43.75881173405247" accel="1.0" decel="5.0" sigma="0.0" length="4.5" maxSpeed="12.155225481681242" />
	<vType id="vType_car_17.71765715875454" accel="1.0" decel="5.0" sigma="0.0" length="4.5" maxSpeed="4.921571432987372" />
	<vType id="vType_car_4.4737783481758" accel="1.0" decel="5.0" sigma="0.0" length="4.5" maxSpeed="1.242716207826611" />
	<vType id="vType_car_24.339693043183424" accel="1.0" decel="5.0" sigma="0.0" length="4.5" maxSpeed="6.761025845328729" />
	<vType id="vType_car_7.753363713125936" accel="1.0" decel="5.0" sigma="0.0" length="4.5" maxSpeed="2.153712142534982" />
	<vType id="vType_car_17.44670850083968" accel="1.0" decel="5.0" sigma="0.0" length="4.5" maxSpeed="4.846307916899911" />
	<vType id="vType_car_9.206979987405566" accel="1.0" decel="5.0" sigma="0.0" length="4.5" maxSpeed="2.5574944409459905" />
	<vType id="vType_car_4.1685568454510395" accel="1.0" decel="5.0" sigma="0.0" length="4.5" maxSpeed="1.1579324570697331" />
	<vType id="vType_car_16.509506124429894" accel="1.0" decel="5.0" sigma="0.0" length="4.5" maxSpeed="4.585973923452748" />
	<vType id="vType_car_13.60819390932077" accel="1.0" decel="5.0" sigma="0.0" length="4.5" maxSpeed="3.7800538637002137" />
	<vType id="vType_car_19.23521298273546" accel="1.0" decel="5.0" sigma="0.0" length="4.5" maxSpeed="5.343114717426517" />
	<vType id="vType_car_22.036478461951443" accel="1.0" decel="5.0" sigma="0.0" length="4.5" maxSpeed="6.121244017208734" />
	<vType id="vType_car_3.751470627035129" accel="1.0" decel="5.0" sigma="0.0" length="4.5" maxSpeed="1.0420751741764247" />
	<vType id="vType_car_30.27863991058251" accel="1.0" decel="5.0" sigma="0.0" length="4.5" maxSpeed="8.410733308495141" />
	<vType id="vType_car_39.005280305491034" accel="1.0" decel="5.0" sigma="0.0" length="4.5" maxSpeed="10.834800084858621" />
	<vType id="vType_car_37.921233342745325" accel="1.0" decel="5.0" sigma="0.0" length="4.5" maxSpeed="10.533675928540367" />
	<vType id="vType_car_35.08495439483902" accel="1.0" decel="5.0" sigma="0.0" length="4.5" maxSpeed="9.745820665233062" />
	<vType id="vType_car_28.43442718446136" accel="1.0" decel="5.0" sigma="0.0" length="4.5" maxSpeed="7.898451995683711" />
	<vType id="vType_car_3.61495573179037" accel="1.0" decel="5.0" sigma="0.0" length="4.5" maxSpeed="1.0041543699417694" />
	<vType id="vType_car_42.62785749428879" accel="1.0" decel="5.0" sigma="0.0" length="4.5" maxSpeed="11.84107152619133" />
	<vType id="vType_car_14.743972098013774" accel="1.0" decel="5.0" sigma="0.0" length="4.5" maxSpeed="4.095547805003826" />
	<vType id="vType_car_3.9342017076331595" accel="1.0" decel="5.0" sigma="0.0" length="4.5" maxSpeed="1.0928338076758777" />
	<vType id="vType_car_15.302327358019161" accel="1.0" decel="5.0" sigma="0.0" length="4.5" maxSpeed="4.250646488338655" />
	<vType id="vType_car_3.523732129404789" accel="1.0" decel="5.0" sigma="0.0" length="4.5" maxSpeed="0.9788144803902191" />
	<vType id="vType_car_9.360349402763978" accel="1.0" decel="5.0" sigma="0.0" length="4.5" maxSpeed="2.600097056323327" />
	<vType id="vType_car_19.1305227412724" accel="1.0" decel="5.0" sigma="0.0" length="4.5" maxSpeed="5.314034094797889" />
	<vType id="vType_car_6.068877612708497" accel="1.0" decel="5.0" sigma="0.0" length="4.5" maxSpeed="1.6857993368634714" />
	<vType id="vType_car_4.303107073833307" accel="1.0" decel="5.0" sigma="0.0" length="4.5" maxSpeed="1.195307520509252" />
	<vType id="vType_car_0.503390304200684" accel="1.0" decel="5.0" sigma="0.0" length="4.5" maxSpeed="0.13983064005574555" />
	<vType id="vType_car_3.4996394117530802" accel="1.0" decel="5.0" sigma="0.0" length="4.5" maxSpeed="0.9721220588203" />
	<vType id="vType_car_15.336911739714802" accel="1.0" decel="5.0" sigma="0.0" length="4.5" maxSpeed="4.260253261031889" />
	<vType id="vType_car_4.166206431582657" accel="1.0" decel="5.0" sigma="0.0" length="4.5" maxSpeed="1.1572795643285156" />
	<vType id="vType_car_52.013564019727454" accel="1.0" decel="5.0" sigma="0.0" length="4.5" maxSpeed="14.44821222770207" />
	<vType id="vType_car_24.440625399465908" accel="1.0" decel="5.0" sigma="0.0" length="4.5" maxSpeed="6.789062610962752" />
	<vType id="vType_car_11.721674765016617" accel="1.0" decel="5.0" sigma="0.0" length="4.5" maxSpeed="3.2560207680601714" />
	<vType id="vType_car_16.297643704488408" accel="1.0" decel="5.0" sigma="0.0" length="4.5" maxSpeed="4.52712325124678" />
	<vType id="vType_car_3.663794899094863" accel="1.0" decel="5.0" sigma="0.0" length="4.5" maxSpeed="1.0177208053041285" />
	<vType id="vType_car_18.455535516704128" accel="1.0" decel="5.0" sigma="0.0" length="4.5" maxSpeed="5.126537643528924" />
	<vType id="vType_car_24.674213467187265" accel="1.0" decel="5.0" sigma="0.0" length="4.5" maxSpeed="6.853948185329796" />
	<vType id="vType_car_25.395981840067403" accel="1.0" decel="5.0" sigma="0.0" length="4.5" maxSpeed="7.0544394000187225" />
	<vType id="vType_car_24.8334459103625" accel="1.0" decel="5.0" sigma="0.0" length="4.5" maxSpeed="6.898179419545139" />
	<vType id="vType_car_3.1782681951494176" accel="1.0" decel="5.0" sigma="0.0" length="4.5" maxSpeed="0.8828522764303938" />
	<vType id="vType_car_31.248871657797572" accel="1.0" decel="5.0" sigma="0.0" length="4.5" maxSpeed="8.680242127165991" />
	<vType id="vType_car_25.826467530449683" accel="1.0" decel="5.0" sigma="0.0" length="4.5" maxSpeed="7.174018758458245" />
	<vType id="vType_car_3.451119661419002" accel="1.0" decel="5.0" sigma="0.0" length="4.5" maxSpeed="0.9586443503941672" />
	<vType id="vType_car_3.1909336366646297" accel="1.0" decel="5.0" sigma="0.0" length="4.5" maxSpeed="0.8863704546290638" />
	<vType id="vType_car_46.554138162133334" accel="1.0" decel="5.0" sigma="0.0" length="4.5" maxSpeed="12.931705045037036" />
	<vType id="vType_car_4.698309505873051" accel="1.0" decel="5.0" sigma="0.0" length="4.5" maxSpeed="1.3050859738536253" />
	<vType id="vType_car_33.89458793081225" accel="1.0" decel="5.0" sigma="0.0" length="4.5" maxSpeed="9.415163314114514" />
	<vType id="vType_car_4.900898196290902" accel="1.0" decel="5.0" sigma="0.0" length="4.5" maxSpeed="1.3613606100808062" />
	<vType id="vType_car_22.396300569656887" accel="1.0" decel="5.0" sigma="0.0" length="4.5" maxSpeed="6.221194602682468" />
	<vType id="vType_car_35.60078929996559" accel="1.0" decel="5.0" sigma="0.0" length="4.5" maxSpeed="9.889108138879331" />
	<vType id="vType_car_20.620268932286873" accel="1.0" decel="5.0" sigma="0.0" length="4.5" maxSpeed="5.727852481190798" />
	<vType id="vType_car_28.450345099623327" accel="1.0" decel="5.0" sigma="0.0" length="4.5" maxSpeed="7.902873638784257" />
	<vType id="vType_car_3.4962513633563246" accel="1.0" decel="5.0" sigma="0.0" length="4.5" maxSpeed="0.9711809342656457" />
	<vType id="vType_car_34.909702883994235" accel="1.0" decel="5.0" sigma="0.0" length="4.5" maxSpeed="9.697139689998398" />
	<vType id="vType_car_52.96040544856676" accel="1.0" decel="5.0" sigma="0.0" length="4.5" maxSpeed="14.711223735712988" />
	<vType id="vType_car_4.020325343237291" accel="1.0" decel="5.0" sigma="0.0" length="4.5" maxSpeed="1.1167570397881363" />
	<vType id="vType_car_3.35285350611654" accel="1.0" decel="5.0" sigma="0.0" length="4.5" maxSpeed="0.9313481961434833" />
	<vType id="vType_car_35.664670168272984" accel="1.0" decel="5.0" sigma="0.0" length="4.5" maxSpeed="9.906852824520273" />
	<vType id="vType_car_3.621871059355809" accel="1.0" decel="5.0" sigma="0.0" length="4.5" maxSpeed="1.0060752942655025" />
	<vType id="vType_car_20.252088382916465" accel="1.0" decel="5.0" sigma="0.0" length="4.5" maxSpeed="5.6255801063656845" />
	<vType id="vType_car_47.10614365399448" accel="1.0" decel="5.0" sigma="0.0" length="4.5" maxSpeed="13.085039903887354" />
	<vType id="vType_car_18.879883719374362" accel="1.0" decel="5.0" sigma="0.0" length="4.5" maxSpeed="5.244412144270656" />
	<vType id="vType_car_34.640087741397004" accel="1.0" decel="5.0" sigma="0.0" length="4.5" maxSpeed="9.6222465948325" />
	<vType id="vType_car_3.9271329324650868" accel="1.0" decel="5.0" sigma="0.0" length="4.5" maxSpeed="1.0908702590180797" />
	<vType id="vType_car_3.342310449275937" accel="1.0" decel="5.0" sigma="0.0" length="4.5" maxSpeed="0.9284195692433157" />
	<vType id="vType_car_8.21231860780545" accel="1.0" decel="5.0" sigma="0.0" length="4.5" maxSpeed="2.2811996132792918" />
	<vType id="vType_car_35.918247652483394" accel="1.0" decel="5.0" sigma="0.0" length="4.5" maxSpeed="9.97729101457872" />
	<vType id="vType_car_50.117192746535906" accel="1.0" decel="5.0" sigma="0.0" length="4.5" maxSpeed="13.921442429593307" />
	<vType id="vType_car_17.981947038216095" accel="1.0" decel="5.0" sigma="0.0" length="4.5" maxSpeed="4.99498528839336" />
	<vType id="vType_car_4.69353072715845" accel="1.0" decel="5.0" sigma="0.0" length="4.5" maxSpeed="1.3037585353217915" />
	<vType id="vType_car_12.09367641559221" accel="1.0" decel="5.0" sigma="0.0" length="4.5" maxSpeed="3.3593545598867247" />
	<vType id="vType_car_4.5936453895348555" accel="1.0" decel="5.0" sigma="0.0" length="4.5" maxSpeed="1.2760126082041265" />
	<vType id="vType_car_3.4209917899898628" accel="1.0" decel="5.0" sigma="0.0" length="4.5" maxSpeed="0.9502754972194063" />
	<vType id="vType_car_7.740789496358405" accel="1.0" decel="5.0" sigma="0.0" length="4.5" maxSpeed="2.1502193045440015" />
	<vType id="vType_car_11.160626451872583" accel="1.0" decel="5.0" sigma="0.0" length="4.5" maxSpeed="3.100174014409051" />
	<vType id="vType_car_12.79067032820281" accel="1.0" decel="5.0" sigma="0.0" length="4.5" maxSpeed="3.5529639800563357" />
	<vType id="vType_car_4.560002804889319" accel="1.0" decel="5.0" sigma="0.0" length="4.5" maxSpeed="1.2666674458025884" />
	<vType id="vType_car_7.3561995849589925" accel="1.0" decel="5.0" sigma="0.0" length="4.5" maxSpeed="2.04338877359972" />
	<vType id="vType_car_3.505509639521831" accel="1.0" decel="5.0" sigma="0.0" length="4.5" maxSpeed="0.973752677644953" />
	<vType id="vType_car_5.505145561288373" accel="1.0" decel="5.0" sigma="0.0" length="4.5" maxSpeed="1.5292071003578813" />
	<vType id="vType_car_38.016083316344485" accel="1.0" decel="5.0" sigma="0.0" length="4.5" maxSpeed="10.560023143429023" />
	<vType id="vType_car_9.461222465337382" accel="1.0" decel="5.0" sigma="0.0" length="4.5" maxSpeed="2.628117351482606" />
	<vType id="vType_car_14.165834405900593" accel="1.0" decel="5.0" sigma="0.0" length="4.5" maxSpeed="3.9349540016390536" />
	<vType id="vType_car_8.642065455567527" accel="1.0" decel="5.0" sigma="0.0" length="4.5" maxSpeed="2.4005737376576466" />
	<vType id="vType_car_12.23712592824862" accel="1.0" decel="5.0" sigma="0.0" length="4.5" maxSpeed="3.3992016467357278" />
	<vType id="vType_car_14.409081482821733" accel="1.0" decel="5.0" sigma="0.0" length="4.5" maxSpeed="4.002522634117148" />
	<vType id="vType_car_33.17646009581079" accel="1.0" decel="5.0" sigma="0.0" length="4.5" maxSpeed="9.215683359947441" />
	<vType id="vType_car_18.28928441167405" accel="1.0" decel="5.0" sigma="0.0" length="4.5" maxSpeed="5.080356781020569" />
	<vType id="vType_car_8.307657972221085" accel="1.0" decel="5.0" sigma="0.0" length="4.5" maxSpeed="2.307682770061412" />
	<vType id="vType_car_55.963515330245556" accel="1.0" decel="5.0" sigma="0.0" length="4.5" maxSpeed="15.54542092506821" />
	<vType id="vType_car_45.23447150028451" accel="1.0" decel="5.0" sigma="0.0" length="4.5" maxSpeed="12.565130972301253" />
	<vType id="vType_car_10.528707538070954" accel="1.0" decel="5.0" sigma="0.0" length="4.5" maxSpeed="2.924640982797487" />
	<vType id="vType_car_3.4252124862933604" accel="1.0" decel="5.0" sigma="0.0" length="4.5" maxSpeed="0.9514479128592668" />
	<vType id="vType_car_12.98000769610668" accel="1.0" decel="5.0" sigma="0.0" length="4.5" maxSpeed="3.6055576933629667" />
	<vType id="vType_truck_46.29170122072849" accel="1.0" decel="5.0" sigma="0.0" length="8" maxSpeed="12.858805894646803" />
	<vType id="vType_car_12.88753565126682" accel="1.0" decel="5.0" sigma="0.0" length="4.5" maxSpeed="3.579871014240783" />
	<vType id="vType_car_38.75122772053323" accel="1.0" decel="5.0" sigma="0.0" length="4.5" maxSpeed="10.764229922370342" />
	<vType id="vType_car_9.71000016092326" accel="1.0" decel="5.0" sigma="0.0" length="4.5" maxSpeed="2.6972222669231276" />
	<vType id="vType_car_3.354700492421317" accel="1.0" decel="5.0" sigma="0.0" length="4.5" maxSpeed="0.9318612478948102" />
	<vType id="vType_car_6.3506944454028895" accel="1.0" decel="5.0" sigma="0.0" length="4.5" maxSpeed="1.7640817903896915" />
	<vType id="vType_car_14.326493553677672" accel="1.0" decel="5.0" sigma="0.0" length="4.5" maxSpeed="3.979581542688242" />
	<vType id="vType_car_3.230140220440146" accel="1.0" decel="5.0" sigma="0.0" length="4.5" maxSpeed="0.897261172344485" />
	<vType id="vType_car_9.601623420803511" accel="1.0" decel="5.0" sigma="0.0" length="4.5" maxSpeed="2.6671176168898643" />
	<vType id="vType_car_43.36652616729667" accel="1.0" decel="5.0" sigma="0.0" length="4.5" maxSpeed="12.04625726869352" />
	<vType id="vType_car_2.818985703523831" accel="1.0" decel="5.0" sigma="0.0" length="4.5" maxSpeed="0.7830515843121753" />
	<vType id="vType_car_44.968240197814794" accel="1.0" decel="5.0" sigma="0.0" length="4.5" maxSpeed="12.491177832726331" />
	<vType id="vType_car_3.9456023755998286" accel="1.0" decel="5.0" sigma="0.0" length="4.5" maxSpeed="1.0960006598888412" />
	<vType id="vType_car_46.783984779838725" accel="1.0" decel="5.0" sigma="0.0" length="4.5" maxSpeed="12.99555132773298" />
	<vType id="vType_car_51.52062135215795" accel="1.0" decel="5.0" sigma="0.0" length="4.5" maxSpeed="14.311283708932764" />
	<vType id="vType_car_4.074766525096514" accel="1.0" decel="5.0" sigma="0.0" length="4.5" maxSpeed="1.1318795903045873" />
	<vType id="vType_car_52.11858306211543" accel="1.0" decel="5.0" sigma="0.0" length="4.5" maxSpeed="14.477384183920952" />
	<vType id="vType_car_3.4304278554643757" accel="1.0" decel="5.0" sigma="0.0" length="4.5" maxSpeed="0.9528966265178821" />
	<vType id="vType_car_42.788311848561506" accel="1.0" decel="5.0" sigma="0.0" length="4.5" maxSpeed="11.885642180155974" />
	<vType id="vType_car_52.67321038786286" accel="1.0" decel="5.0" sigma="0.0" length="4.5" maxSpeed="14.631447329961905" />
	<vType id="vType_car_3.5237321294047885" accel="1.0" decel="5.0" sigma="0.0" length="4.5" maxSpeed="0.978814480390219" />
	<vType id="vType_car_3.5436509874624953" accel="1.0" decel="5.0" sigma="0.0" length="4.5" maxSpeed="0.9843474965173598" />
	<vType id="vType_car_46.11567708439196" accel="1.0" decel="5.0" sigma="0.0" length="4.5" maxSpeed="12.80991030121999" />
	<vType id="vType_car_8.212289790079595" accel="1.0" decel="5.0" sigma="0.0" length="4.5" maxSpeed="2.281191608355443" />
	<vType id="vType_car_3.574071159824857" accel="1.0" decel="5.0" sigma="0.0" length="4.5" maxSpeed="0.9927975443957936" />
	<vType id="vType_car_6.919886835080136" accel="1.0" decel="5.0" sigma="0.0" length="4.5" maxSpeed="1.92219078752226" />
	<vType id="vType_car_3.9556448461437985" accel="1.0" decel="5.0" sigma="0.0" length="4.5" maxSpeed="1.098790235039944" />
	<vType id="vType_car_8.736088666955641" accel="1.0" decel="5.0" sigma="0.0" length="4.5" maxSpeed="2.426691296376567" />
	<vType id="vType_car_53.272263129227206" accel="1.0" decel="5.0" sigma="0.0" length="4.5" maxSpeed="14.797850869229778" />
	<vType id="vType_car_3.8747640365188007" accel="1.0" decel="5.0" sigma="0.0" length="4.5" maxSpeed="1.0763233434774446" />
	<vType id="vType_car_4.486098121303968" accel="1.0" decel="5.0" sigma="0.0" length="4.5" maxSpeed="1.24613836702888" />
	<vType id="vType_car_3.61495573179037" accel="1.0" decel="5.0" sigma="0.0" length="4.5" maxSpeed="1.0041543699417694" />
	<vType id="vType_car_13.169964320449816" accel="1.0" decel="5.0" sigma="0.0" length="4.5" maxSpeed="3.6583234223471712" />
	<vType id="vType_car_5.9298869346815195" accel="1.0" decel="5.0" sigma="0.0" length="4.5" maxSpeed="1.6471908151893109" />
	<vType id="vType_car_3.377603035268388" accel="1.0" decel="5.0" sigma="0.0" length="4.5" maxSpeed="0.9382230653523299" />
	<vType id="vType_car_5.146610679028189" accel="1.0" decel="5.0" sigma="0.0" length="4.5" maxSpeed="1.4296140775078303" />
	<vType id="vType_car_2.863032355141391" accel="1.0" decel="5.0" sigma="0.0" length="4.5" maxSpeed="0.795286765317053" />
	<vType id="vType_car_1.6220354246466486" accel="1.0" decel="5.0" sigma="0.0" length="4.5" maxSpeed="0.4505653957351802" />
	<vType id="vType_car_59.54184753177972" accel="1.0" decel="5.0" sigma="0.0" length="4.5" maxSpeed="16.539402092161033" />
	<vType id="vType_car_3.6794605596414782" accel="1.0" decel="5.0" sigma="0.0" length="4.5" maxSpeed="1.0220723776781884" />
	<vType id="vType_car_3.1519324923220924" accel="1.0" decel="5.0" sigma="0.0" length="4.5" maxSpeed="0.8755368034228034" />
	<vType id="vType_car_39.55051044594933" accel="1.0" decel="5.0" sigma="0.0" length="4.5" maxSpeed="10.986252901652591" />
	<vType id="vType_car_2.679852045364192" accel="1.0" decel="5.0" sigma="0.0" length="4.5" maxSpeed="0.7444033459344978" />
	<vType id="vType_car_2.7228839181764277" accel="1.0" decel="5.0" sigma="0.0" length="4.5" maxSpeed="0.7563566439378966" />
	<vType id="vType_car_4.017329523589333" accel="1.0" decel="5.0" sigma="0.0" length="4.5" maxSpeed="1.1159248676637035" />
	<vType id="vType_car_2.8018644060457816" accel="1.0" decel="5.0" sigma="0.0" length="4.5" maxSpeed="0.7782956683460505" />
	<vType id="vType_car_52.73395773152513" accel="1.0" decel="5.0" sigma="0.0" length="4.5" maxSpeed="14.648321592090314" />
	<vType id="vType_car_2.761773238750351" accel="1.0" decel="5.0" sigma="0.0" length="4.5" maxSpeed="0.7671592329862086" />
	<vType id="vType_car_2.7644305669010327" accel="1.0" decel="5.0" sigma="0.0" length="4.5" maxSpeed="0.7678973796947313" />
	<vType id="vType_car_3.815647657038647" accel="1.0" decel="5.0" sigma="0.0" length="4.5" maxSpeed="1.0599021269551796" />
	<vType id="vType_car_60.85830930612663" accel="1.0" decel="5.0" sigma="0.0" length="4.5" maxSpeed="16.905085918368506" />
	<vType id="vType_car_68.5989496873315" accel="1.0" decel="5.0" sigma="0.0" length="4.5" maxSpeed="19.055263802036528" />
	<vType id="vType_car_13.427915555439293" accel="1.0" decel="5.0" sigma="0.0" length="4.5" maxSpeed="3.7299765431775813" />
	<vType id="vType_car_51.00497925211989" accel="1.0" decel="5.0" sigma="0.0" length="4.5" maxSpeed="14.168049792255523" />
	<vType id="vType_car_3.1567713309629233" accel="1.0" decel="5.0" sigma="0.0" length="4.5" maxSpeed="0.8768809252674786" />
	<vType id="vType_car_4.228478555285746" accel="1.0" decel="5.0" sigma="0.0" length="4.5" maxSpeed="1.1745773764682628" />
	<vType id="vType_car_14.546832712527639" accel="1.0" decel="5.0" sigma="0.0" length="4.5" maxSpeed="4.040786864591011" />
	<vType id="vType_car_2.7015279658770046" accel="1.0" decel="5.0" sigma="0.0" length="4.5" maxSpeed="0.7504244349658346" />
	<vType id="vType_car_5.060634021431856" accel="1.0" decel="5.0" sigma="0.0" length="4.5" maxSpeed="1.4057316726199598" />
	<vType id="vType_car_11.192857785548364" accel="1.0" decel="5.0" sigma="0.0" length="4.5" maxSpeed="3.109127162652323" />
	<vType id="vType_car_3.663019871820218" accel="1.0" decel="5.0" sigma="0.0" length="4.5" maxSpeed="1.0175055199500604" />
	<vType id="vType_car_20.71645971431152" accel="1.0" decel="5.0" sigma="0.0" length="4.5" maxSpeed="5.754572142864311" />
	<vType id="vType_car_18.10061449767801" accel="1.0" decel="5.0" sigma="0.0" length="4.5" maxSpeed="5.027948471577225" />
	<vType id="vType_car_3.583058145422694" accel="1.0" decel="5.0" sigma="0.0" length="4.5" maxSpeed="0.9952939292840817" />
	<vType id="vType_car_21.43745169867768" accel="1.0" decel="5.0" sigma="0.0" length="4.5" maxSpeed="5.9548476940771335" />
	<vType id="vType_car_0.22023325808779928" accel="1.0" decel="5.0" sigma="0.0" length="4.5" maxSpeed="0.06117590502438869" />
	<vType id="vType_car_20.20185752983023" accel="1.0" decel="5.0" sigma="0.0" length="4.5" maxSpeed="5.611627091619509" />
	<vType id="vType_car_16.98439157196583" accel="1.0" decel="5.0" sigma="0.0" length="4.5" maxSpeed="4.717886547768286" />
	<vType id="vType_car_42.55885530624175" accel="1.0" decel="5.0" sigma="0.0" length="4.5" maxSpeed="11.82190425173382" />
	<vType id="vType_car_3.3922630784176437" accel="1.0" decel="5.0" sigma="0.0" length="4.5" maxSpeed="0.9422952995604565" />
	<vType id="vType_car_46.06112178907014" accel="1.0" decel="5.0" sigma="0.0" length="4.5" maxSpeed="12.794756052519483" />
	<vType id="vType_car_19.938592595014967" accel="1.0" decel="5.0" sigma="0.0" length="4.5" maxSpeed="5.5384979430597125" />
	<vType id="vType_car_3.5901514430348542" accel="1.0" decel="5.0" sigma="0.0" length="4.5" maxSpeed="0.997264289731904" />
	<vType id="vType_car_44.52597640013568" accel="1.0" decel="5.0" sigma="0.0" length="4.5" maxSpeed="12.368326777815467" />
	<vType id="vType_car_39.79964643334343" accel="1.0" decel="5.0" sigma="0.0" length="4.5" maxSpeed="11.055457342595398" />
	<vType id="vType_car_46.14350679806572" accel="1.0" decel="5.0" sigma="0.0" length="4.5" maxSpeed="12.817640777240477" />
	<vType id="vType_car_47.92725868898633" accel="1.0" decel="5.0" sigma="0.0" length="4.5" maxSpeed="13.313127413607313" />
	<vType id="vType_car_3.541394516431931" accel="1.0" decel="5.0" sigma="0.0" length="4.5" maxSpeed="0.9837206990088697" />