<?xml version='1.0' encoding='utf-8'?>
<routes><vType id="vType_car_9.907259706406025" accel="1.0" decel="5.0" sigma="0.0" length="4.5" maxSpeed="2.7520165851127847" /><vType id="vType_car_14.830929281798156" accel="1.0" decel="5.0" sigma="0.0" length="4.5" maxSpeed="4.119702578277265" /><vType id="vType_car_9.562308678248156" accel="1.0" decel="5.0" sigma="0.0" length="4.5" maxSpeed="2.656196855068932" /><vType id="vType_car_2.927505451495004" accel="1.0" decel="5.0" sigma="0.0" length="4.5" maxSpeed="0.8131959587486122" /><vType id="vType_car_3.0776411600381" accel="1.0" decel="5.0" sigma="0.0" length="4.5" maxSpeed="0.8549003222328055" /><vType id="vType_car_12.076740618916883" accel="1.0" decel="5.0" sigma="0.0" length="4.5" maxSpeed="3.354650171921356" /><vType id="vType_car_27.265630567767957" accel="1.0" decel="5.0" sigma="0.0" length="4.5" maxSpeed="7.573786268824432" /><vType id="vType_car_22.816309664594783" accel="1.0" decel="5.0" sigma="0.0" length="4.5" maxSpeed="6.337863795720773" /><vType id="vType_car_16.068787610034974" accel="1.0" decel="5.0" sigma="0.0" length="4.5" maxSpeed="4.463552113898603" /><vType id="vType_car_12.65972758957061" accel="1.0" decel="5.0" sigma="0.0" length="4.5" maxSpeed="3.5165909971029468" /><vType id="vType_car_6.338460239620547" accel="1.0" decel="5.0" sigma="0.0" length="4.5" maxSpeed="1.7606833998945963" /><vType id="vType_car_23.6156583574036" accel="1.0" decel="5.0" sigma="0.0" length="4.5" maxSpeed="6.559905099278778" /><vType id="vType_car_68.61993470716453" accel="1.0" decel="5.0" sigma="0.0" length="4.5" maxSpeed="19.061092974212368" /><vType id="vType_car_25.38821331608131" accel="1.0" decel="5.0" sigma="0.0" length="4.5" maxSpeed="7.052281476689252" /><vType id="vType_car_2.8938514863388134" accel="1.0" decel="5.0" sigma="0.0" length="4.5" maxSpeed="0.8038476350941148" /><vType id="vType_car_11.691778578317404" accel="1.0" decel="5.0" sigma="0.0" length="4.5" maxSpeed="3.2477162717548342" /><vType id="vType_car_2.519539444286473" accel="1.0" decel="5.0" sigma="0.0" length="4.5" maxSpeed="0.6998720678573536" /><vType id="vType_car_19.538352073663564" accel="1.0" decel="5.0" sigma="0.0" length="4.5" maxSpeed="5.427320020462101" /><vType id="vType_bus_24.473135332749223" accel="1.0" decel="5.0" sigma="0.0" length="13" maxSpeed="6.798093147985895" /><vType id="vType_car_31.95685544474379" accel="1.0" decel="5.0" sigma="0.0" length="4.5" maxSpeed="8.876904290206609" /><vType id="vType_car_20.56635041126771" accel="1.0" decel="5.0" sigma="0.0" length="4.5" maxSpeed="5.71287511424103" /><vType id="vType_car_38.958028447868514" accel="1.0" decel="5.0" sigma="0.0" length="4.5" maxSpeed="10.821674568852364" /><vType id="vType_car_20.906621528310446" accel="1.0" decel="5.0" sigma="0.0" length="4.5" maxSpeed="5.807394868975123" /><vType id="vType_car_29.735246063704924" accel="1.0" decel="5.0" sigma="0.0" length="4.5" maxSpeed="8.259790573251367" /><vType id="vType_car_2.766589646096017" accel="1.0" decel="5.0" sigma="0.0" length="4.5" maxSpeed="0.7684971239155602" /><vType id="vType_car_2.798596683603237" accel="1.0" decel="5.0" sigma="0.0" length="4.5" maxSpeed="0.7773879676675658" /><vType id="vType_car_46.69717934300004" accel="1.0" decel="5.0" sigma="0.0" length="4.5" maxSpeed="12.971438706388899" /><vType id="vType_car_17.132554909799854" accel="1.0" decel="5.0" sigma="0.0" length="4.5" maxSpeed="4.759043030499959" /><vType id="vType_car_3.9125485990299684" accel="1.0" decel="5.0" sigma="0.0" length="4.5" maxSpeed="1.0868190552861023" /><vType id="vType_car_2.8768566366776036" accel="1.0" decel="5.0" sigma="0.0" length="4.5" maxSpeed="0.7991268435215565" /><vType id="vType_car_28.645180595594187" accel="1.0" decel="5.0" sigma="0.0" length="4.5" maxSpeed="7.956994609887274" /><vType id="vType_car_3.537335138858351" accel="1.0" decel="5.0" sigma="0.0" length="4.5" maxSpeed="0.9825930941273198" /><vType id="vType_car_5.268758298748651" accel="1.0" decel="5.0" sigma="0.0" length="4.5" maxSpeed="1.4635439718746253" /><vType id="vType_car_6.601440886802964" accel="1.0" decel="5.0" sigma="0.0" length="4.5" maxSpeed="1.8337335796674898" /><vType id="vType_car_6.117040308668047" accel="1.0" decel="5.0" sigma="0.0" length="4.5" maxSpeed="1.6991778635189019" /><vType id="vType_car_24.233135919152286" accel="1.0" decel="5.0" sigma="0.0" length="4.5" maxSpeed="6.731426644208968" /><vType id="vType_car_24.340128787793805" accel="1.0" decel="5.0" sigma="0.0" length="4.5" maxSpeed="6.761146885498279" /><vType id="vType_car_32.37641132825887" accel="1.0" decel="5.0" sigma="0.0" length="4.5" maxSpeed="8.993447591183019" /><vType id="vType_car_2.957582804918342" accel="1.0" decel="5.0" sigma="0.0" length="4.5" maxSpeed="0.8215507791439839" /><vType id="vType_car_4.005884728138146" accel="1.0" decel="5.0" sigma="0.0" length="4.5" maxSpeed="1.1127457578161517" /><vType id="vType_car_24.899306814864158" accel="1.0" decel="5.0" sigma="0.0" length="4.5" maxSpeed="6.916474115240043" /><vType id="vType_truck_51.600706124369545" accel="1.0" decel="5.0" sigma="0.0" length="8" maxSpeed="14.33352947899154" /><vType id="vType_car_15.61795046033446" accel="1.0" decel="5.0" sigma="0.0" length="4.5" maxSpeed="4.338319572315128" /><vType id="vType_car_2.8524252659506115" accel="1.0" decel="5.0" sigma="0.0" length="4.5" maxSpeed="0.7923403516529476" /><vType id="vType_car_2.5654596431050876" accel="1.0" decel="5.0" sigma="0.0" length="4.5" maxSpeed="0.7126276786403021" /><vType id="vType_car_7.704522177906082" accel="1.0" decel="5.0" sigma="0.0" length="4.5" maxSpeed="2.140145049418356" /><vType id="vType_car_3.478076653379981" accel="1.0" decel="5.0" sigma="0.0" length="4.5" maxSpeed="0.9661324037166613" /><vType id="vType_car_3.31990757531522" accel="1.0" decel="5.0" sigma="0.0" length="4.5" maxSpeed="0.9221965486986722" /><vType id="vType_truck_3.9125485990299684" accel="1.0" decel="5.0" sigma="0.0" length="8" maxSpeed="1.0868190552861023" /><vType id="vType_car_3.143138056556188" accel="1.0" decel="5.0" sigma="0.0" length="4.5" maxSpeed="0.8730939045989411" /><vType id="vType_car_15.749474251779331" accel="1.0" decel="5.0" sigma="0.0" length="4.5" maxSpeed="4.374853958827591" /><vType id="vType_car_3.5665507043585194" accel="1.0" decel="5.0" sigma="0.0" length="4.5" maxSpeed="0.9907085289884776" /><vType id="vType_car_20.99509251290656" accel="1.0" decel="5.0" sigma="0.0" length="4.5" maxSpeed="5.831970142474044" /><vType id="vType_car_2.5183059599079125" accel="1.0" decel="5.0" sigma="0.0" length="4.5" maxSpeed="0.6995294333077534" /><vType id="vType_truck_20.155665966296638" accel="1.0" decel="5.0" sigma="0.0" length="8" maxSpeed="5.598796101749066" /><vType id="vType_car_3.601821980598527" accel="1.0" decel="5.0" sigma="0.0" length="4.5" maxSpeed="1.000506105721813" /><vType id="vType_car_4.16437513641955" accel="1.0" decel="5.0" sigma="0.0" length="4.5" maxSpeed="1.1567708712276528" /><vType id="vType_car_4.494253874990443" accel="1.0" decel="5.0" sigma="0.0" length="4.5" maxSpeed="1.248403854164012" /><vType id="vType_car_23.63775229800107" accel="1.0" decel="5.0" sigma="0.0" length="4.5" maxSpeed="6.566042305000297" /><vType id="vType_car_3.8484585647674985" accel="1.0" decel="5.0" sigma="0.0" length="4.5" maxSpeed="1.0690162679909718" /><vType id="vType_car_8.445478927768187" accel="1.0" decel="5.0" sigma="0.0" length="4.5" maxSpeed="2.3459663688244965" /><vType id="vType_bus_14.123823664686164" accel="1.0" decel="5.0" sigma="0.0" length="13" maxSpeed="3.923284351301712" /><vType id="vType_truck_30.19591396545546" accel="1.0" decel="5.0" sigma="0.0" length="8" maxSpeed="8.387753879293184" /><vType id="vType_car_23.744942926110305" accel="1.0" decel="5.0" sigma="0.0" length="4.5" maxSpeed="6.595817479475085" /><vType id="vType_car_16.772596817629022" accel="1.0" decel="5.0" sigma="0.0" length="4.5" maxSpeed="4.659054671563617" /><vType id="vType_car_0.6916474115240042" accel="1.0" decel="5.0" sigma="0.0" length="4.5" maxSpeed="0.19212428097889006" /><vType id="vType_car_20.014228929392274" accel="1.0" decel="5.0" sigma="0.0" length="4.5" maxSpeed="5.559508035942298" /><vType id="vType_car_5.604765280996402" accel="1.0" decel="5.0" sigma="0.0" length="4.5" maxSpeed="1.5568792447212227" /><vType id="vType_car_51.01339247453685" accel="1.0" decel="5.0" sigma="0.0" length="4.5" maxSpeed="14.170386798482458" /><vType id="vType_car_42.054417045917134" accel="1.0" decel="5.0" sigma="0.0" length="4.5" maxSpeed="11.68178251275476" /><vType id="vType_car_17.58409346031081" accel="1.0" decel="5.0" sigma="0.0" length="4.5" maxSpeed="4.884470405641892" /><vType id="vType_car_37.02869471274459" accel="1.0" decel="5.0" sigma="0.0" length="4.5" maxSpeed="10.28574853131794" /><vType id="vType_car_37.40562889529108" accel="1.0" decel="5.0" sigma="0.0" length="4.5" maxSpeed="10.39045247091419" /><vType id="vType_car_37.13558402423733" accel="1.0" decel="5.0" sigma="0.0" length="4.5" maxSpeed="10.315440006732592" /><vType id="vType_car_1.7541989685473822" accel="1.0" decel="5.0" sigma="0.0" length="4.5" maxSpeed="0.4872774912631617" /><vType id="vType_car_19.5198263314648" accel="1.0" decel="5.0" sigma="0.0" length="4.5" maxSpeed="5.422173980962444" /><vType id="vType_truck_4.315067102223223" accel="1.0" decel="5.0" sigma="0.0" length="8" maxSpeed="1.1986297506175618" /><vType id="vType_car_2.6216480937444255" accel="1.0" decel="5.0" sigma="0.0" length="4.5" maxSpeed="0.7282355815956737" /><vType id="vType_car_24.85827324423785" accel="1.0" decel="5.0" sigma="0.0" length="4.5" maxSpeed="6.90507590117718" /><vType id="vType_bus_3.5997989037609868" accel="1.0" decel="5.0" sigma="0.0" length="13" maxSpeed="0.9999441399336074" /><vType id="vType_car_10.441683312826509" accel="1.0" decel="5.0" sigma="0.0" length="4.5" maxSpeed="2.9004675868962524" /><vType id="vType_car_9.981048589590703" accel="1.0" decel="5.0" sigma="0.0" length="4.5" maxSpeed="2.7725134971085286" /><route id="route_north_to_east" edges="north_to_center center_to_east" /><route id="route_north_to_south" edges="north_to_center center_to_south" /><route id="route_north_to_west" edges="north_to_center center_to_west" /><route id="route_east_to_west" edges="east_to_center center_to_west" /><route id="route_east_to_south" edges="east_to_center center_to_south" /><route id="route_east_to_north" edges="east_to_center center_to_north" /><route id="route_south_to_west" edges="south_to_center center_to_west" /><route id="route_south_to_north" edges="south_to_center center_to_north" /><route id="route_south_to_east" edges="south_to_center center_to_east" /><route id="route_west_to_south" edges="west_to_center center_to_south" /><route id="route_west_to_north" edges="west_to_center center_to_north" /><route id="route_west_to_east" edges="west_to_center center_to_east" /><vehicle id="veh22" type="vType_car_9.907259706406025" route="route_west_to_north" depart="0.05" /><vehicle id="veh251" type="vType_car_14.830929281798156" route="route_west_to_east" depart="0.05" /><vehicle id="veh216" type="vType_car_9.562308678248156" route="route_west_to_north" depart="0.05" /><vehicle id="veh308" type="vType_car_12.076740618916883" route="route_west_to_south" depart="0.05" /><vehicle id="veh323" type="vType_car_27.265630567767957" route="route_north_to_south" depart="0.05" /><vehicle id="veh330" type="vType_car_12.65972758957061" route="route_west_to_south" depart="0.05" /><vehicle id="veh332" type="vType_car_23.6156583574036" route="route_north_to_south" depart="0.05" /><vehicle id="veh339" type="vType_car_25.38821331608131" route="route_south_to_north" depart="0.09" /><vehicle id="veh342" type="vType_car_19.538352073663564" route="route_north_to_south" depart="2.78" /><vehicle id="veh343" type="vType_bus_24.473135332749223" route="route_north_to_south" depart="3.87" /><vehicle id="veh344" type="vType_car_31.95685544474379" route="route_south_to_north" depart="3.87" /><vehicle id="veh345" type="vType_car_20.56635041126771" route="route_north_to_south" depart="6.47" /><vehicle id="veh347" type="vType_car_20.906621528310446" route="route_north_to_south" depart="8.93" /><vehicle id="veh348" type="vType_car_29.735246063704924" route="route_south_to_north" depart="10.93" /><vehicle id="veh354" type="vType_car_17.132554909799854" route="route_south_to_east" depart="16.21" /><vehicle id="veh373" type="vType_car_24.233135919152286" route="route_south_to_west" depart="24.68" /><vehicle id="veh375" type="vType_car_32.37641132825887" route="route_north_to_south" depart="24.68" /><vehicle id="veh382" type="vType_truck_51.600706124369545" route="route_south_to_north" depart="26.46" /><vehicle id="veh384" type="vType_car_15.61795046033446" route="route_west_to_south" depart="28.78" /><vehicle id="veh324" type="vType_car_15.749474251779331" route="route_west_to_east" depart="32.79" /><vehicle id="veh400" type="vType_car_20.99509251290656" route="route_west_to_east" depart="33.75" /><vehicle id="veh414" type="vType_bus_14.123823664686164" route="route_west_to_north" depart="40.03" /><vehicle id="veh417" type="vType_truck_30.19591396545546" route="route_west_to_east" depart="42.67" /><vehicle id="veh418" type="vType_car_23.744942926110305" route="route_west_to_east" depart="43.18" /><vehicle id="veh419" type="vType_car_16.772596817629022" route="route_west_to_north" depart="43.22" /><vehicle id="veh429" type="vType_car_42.054417045917134" route="route_west_to_east" depart="48.18" /><vehicle id="veh430" type="vType_car_17.58409346031081" route="route_west_to_north" depart="48.64" /><vehicle id="veh432" type="vType_car_37.02869471274459" route="route_west_to_east" depart="49.37" /><vehicle id="veh433" type="vType_car_37.40562889529108" route="route_west_to_east" depart="49.51" /><vehicle id="veh435" type="vType_car_37.13558402423733" route="route_west_to_east" depart="52.42" /></routes>