<?xml version="1.0" encoding="utf-8"?>
<routes>
	<vType id="vType_car_11.672424684866575" accel="1.0" decel="5.0" sigma="0.0" length="4.5" maxSpeed="3.242340190240715" />
	<vType id="vType_car_8.692900699213498" accel="1.0" decel="5.0" sigma="0.0" length="4.5" maxSpeed="2.414694638670416" />
	<vType id="vType_car_31.00349194249564" accel="1.0" decel="5.0" sigma="0.0" length="4.5" maxSpeed="8.612081095137677" />
	<vType id="vType_car_6.618310592526096" accel="1.0" decel="5.0" sigma="0.0" length="4.5" maxSpeed="1.8384196090350267" />
	<vType id="vType_car_4.52023894216601" accel="1.0" decel="5.0" sigma="0.0" length="4.5" maxSpeed="1.2556219283794472" />
	<vType id="vType_car_28.13374943831675" accel="1.0" decel="5.0" sigma="0.0" length="4.5" maxSpeed="7.814930399532431" />
	<vType id="vType_car_4.328011194413322" accel="1.0" decel="5.0" sigma="0.0" length="4.5" maxSpeed="1.2022253317814784" />
	<vType id="vType_bus_43.424490127048294" accel="1.0" decel="5.0" sigma="0.0" length="13" maxSpeed="12.062358368624526" />
	<vType id="vType_car_3.462835829204482" accel="1.0" decel="5.0" sigma="0.0" length="4.5" maxSpeed="0.9618988414456895" />
	<vType id="vType_car_20.587802420727147" accel="1.0" decel="5.0" sigma="0.0" length="4.5" maxSpeed="5.71883400575754" />
	<vType id="vType_truck_30.475813390298864" accel="1.0" decel="5.0" sigma="0.0" length="8" maxSpeed="8.465503719527462" />
	<vType id="vType_car_33.59058559498235" accel="1.0" decel="5.0" sigma="0.0" length="4.5" maxSpeed="9.33071822082843" />
	<vType id="vType_car_3.77763908640489" accel="1.0" decel="5.0" sigma="0.0" length="4.5" maxSpeed="1.049344190668025" />
	<vType id="vType_car_28.50696194837256" accel="1.0" decel="5.0" sigma="0.0" length="4.5" maxSpeed="7.9186005412146" />
	<vType id="vType_car_31.771228236794318" accel="1.0" decel="5.0" sigma="0.0" length="4.5" maxSpeed="8.82534117688731" />
	<vType id="vType_car_18.063518108392472" accel="1.0" decel="5.0" sigma="0.0" length="4.5" maxSpeed="5.0176439189979085" />
	<vType id="vType_car_19.623179675005858" accel="1.0" decel="5.0" sigma="0.0" length="4.5" maxSpeed="5.4508832430571825" />
	<vType id="vType_car_4.07392450494645" accel="1.0" decel="5.0" sigma="0.0" length="4.5" maxSpeed="1.1316456958184582" />
	<vType id="vType_car_18.90800805708574" accel="1.0" decel="5.0" sigma="0.0" length="4.5" maxSpeed="5.252224460301595" />
	<vType id="vType_car_26.127206774685707" accel="1.0" decel="5.0" sigma="0.0" length="4.5" maxSpeed="7.2575574374126965" />
	<vType id="vType_car_27.051168092028632" accel="1.0" decel="5.0" sigma="0.0" length="4.5" maxSpeed="7.514213358896842" />
	<vType id="vType_car_25.889257232615762" accel="1.0" decel="5.0" sigma="0.0" length="4.5" maxSpeed="7.191460342393267" />
	<vType id="vType_car_20.77410807436281" accel="1.0" decel="5.0" sigma="0.0" length="4.5" maxSpeed="5.770585576211892" />
	<vType id="vType_car_3.892112998114129" accel="1.0" decel="5.0" sigma="0.0" length="4.5" maxSpeed="1.081142499476147" />
	<vType id="vType_car_24.73065466921226" accel="1.0" decel="5.0" sigma="0.0" length="4.5" maxSpeed="6.869626297003405" />
	<vType id="vType_car_75.26892556461921" accel="1.0" decel="5.0" sigma="0.0" length="4.5" maxSpeed="20.908034879060892" />
	<vType id="vType_car_30.776982200399353" accel="1.0" decel="5.0" sigma="0.0" length="4.5" maxSpeed="8.549161722333153" />
	<vType id="vType_car_20.376374301349482" accel="1.0" decel="5.0" sigma="0.0" length="4.5" maxSpeed="5.660103972597079" />
	<vType id="vType_car_21.611186048110167" accel="1.0" decel="5.0" sigma="0.0" length="4.5" maxSpeed="6.003107235586157" />
	<vType id="vType_car_13.722901320741842" accel="1.0" decel="5.0" sigma="0.0" length="4.5" maxSpeed="3.8119170335394004" />
	<vType id="vType_car_2.833229314803668" accel="1.0" decel="5.0" sigma="0.0" length="4.5" maxSpeed="0.7870081430010188" />
	<vType id="vType_car_22.11132295405301" accel="1.0" decel="5.0" sigma="0.0" length="4.5" maxSpeed="6.142034153903613" />
	<vType id="vType_car_22.287255817913348" accel="1.0" decel="5.0" sigma="0.0" length="4.5" maxSpeed="6.190904393864819" />
	<vType id="vType_car_2.1286696439265653" accel="1.0" decel="5.0" sigma="0.0" length="4.5" maxSpeed="0.5912971233129348" />
	<vType id="vType_car_26.971189065561898" accel="1.0" decel="5.0" sigma="0.0" length="4.5" maxSpeed="7.491996962656082" />
	<vType id="vType_car_4.641031308040405" accel="1.0" decel="5.0" sigma="0.0" length="4.5" maxSpeed="1.2891753633445568" />
	<vType id="vType_car_3.7070545479365924" accel="1.0" decel="5.0" sigma="0.0" length="4.5" maxSpeed="1.0297373744268312" />
	<vType id="vType_car_20.030645887298782" accel="1.0" decel="5.0" sigma="0.0" length="4.5" maxSpeed="5.564068302027439" />
	<vType id="vType_car_0.7555278172809782" accel="1.0" decel="5.0" sigma="0.0" length="4.5" maxSpeed="0.20986883813360505" />
	<vType id="vType_car_3.9622657736339546" accel="1.0" decel="5.0" sigma="0.0" length="4.5" maxSpeed="1.1006293815649875" />
	<vType id="vType_car_35.73217542860899" accel="1.0" decel="5.0" sigma="0.0" length="4.5" maxSpeed="9.925604285724718" />
	<vType id="vType_car_20.19365306408308" accel="1.0" decel="5.0" sigma="0.0" length="4.5" maxSpeed="5.6093480733564105" />
	<vType id="vType_car_20.12846325391799" accel="1.0" decel="5.0" sigma="0.0" length="4.5" maxSpeed="5.591239792754997" />
	<vType id="vType_car_35.811154657258825" accel="1.0" decel="5.0" sigma="0.0" length="4.5" maxSpeed="9.947542960349674" />
	<vType id="vType_car_3.7776390864048897" accel="1.0" decel="5.0" sigma="0.0" length="4.5" maxSpeed="1.049344190668025" />
	<vType id="vType_car_22.562732304177988" accel="1.0" decel="5.0" sigma="0.0" length="4.5" maxSpeed="6.267425640049441" />
	<vType id="vType_car_41.197798846470654" accel="1.0" decel="5.0" sigma="0.0" length="4.5" maxSpeed="11.443833012908515" />
	<vType id="vType_car_4.572142545053538" accel="1.0" decel="5.0" sigma="0.0" length="4.5" maxSpeed="1.270039595848205" />
	<vType id="vType_car_14.812490426993985" accel="1.0" decel="5.0" sigma="0.0" length="4.5" maxSpeed="4.114580674164996" />
	<vType id="vType_car_7.015004715638839" accel="1.0" decel="5.0" sigma="0.0" length="4.5" maxSpeed="1.9486124210107887" />
	<vType id="vType_car_18.58930049238006" accel="1.0" decel="5.0" sigma="0.0" length="4.5" maxSpeed="5.163694581216684" />
	<vType id="vType_car_7.235210209731625" accel="1.0" decel="5.0" sigma="0.0" length="4.5" maxSpeed="2.0097806138143404" />
	<vType id="vType_car_13.869803977201727" accel="1.0" decel="5.0" sigma="0.0" length="4.5" maxSpeed="3.8527233270004797" />
	<vType id="vType_car_20.108075302125012" accel="1.0" decel="5.0" sigma="0.0" length="4.5" maxSpeed="5.5855764728125035" />
	<vType id="vType_car_43.6526909822035" accel="1.0" decel="5.0" sigma="0.0" length="4.5" maxSpeed="12.125747495056528" />
	<vType id="vType_car_22.99404273280185" accel="1.0" decel="5.0" sigma="0.0" length="4.5" maxSpeed="6.387234092444959" />
	<vType id="vType_car_33.03852762875759" accel="1.0" decel="5.0" sigma="0.0" length="4.5" maxSpeed="9.177368785765998" />
	<vType id="vType_car_8.211096714955412" accel="1.0" decel="5.0" sigma="0.0" length="4.5" maxSpeed="2.2808601985987256" />
	<vType id="vType_car_4.299222200851428" accel="1.0" decel="5.0" sigma="0.0" length="4.5" maxSpeed="1.1942283891253966" />
	<vType id="vType_car_26.554228061472486" accel="1.0" decel="5.0" sigma="0.0" length="4.5" maxSpeed="7.376174461520135" />
	<vType id="vType_car_4.000583991117829" accel="1.0" decel="5.0" sigma="0.0" length="4.5" maxSpeed="1.1112733308660636" />
	<vType id="vType_car_24.27648326252635" accel="1.0" decel="5.0" sigma="0.0" length="4.5" maxSpeed="6.743467572923986" />
	<vType id="vType_car_3.7311201014138904" accel="1.0" decel="5.0" sigma="0.0" length="4.5" maxSpeed="1.0364222503927474" />
	<vType id="vType_car_8.484438242419134" accel="1.0" decel="5.0" sigma="0.0" length="4.5" maxSpeed="2.3567884006719817" />
	<vType id="vType_car_26.91982513689006" accel="1.0" decel="5.0" sigma="0.0" length="4.5" maxSpeed="7.477729204691683" />
	<vType id="vType_car_10.248443876158165" accel="1.0" decel="5.0" sigma="0.0" length="4.5" maxSpeed="2.84678996559949" />
	<vType id="vType_car_9.346095124965377" accel="1.0" decel="5.0" sigma="0.0" length="4.5" maxSpeed="2.5961375347126046" />
	<vType id="vType_car_22.88073815421709" accel="1.0" decel="5.0" sigma="0.0" length="4.5" maxSpeed="6.355760598393636" />
	<vType id="vType_car_33.33492874509557" accel="1.0" decel="5.0" sigma="0.0" length="4.5" maxSpeed="9.259702429193213" />
	<vType id="vType_car_9.749042501443927" accel="1.0" decel="5.0" sigma="0.0" length="4.5" maxSpeed="2.708067361512202" />
	<vType id="vType_car_13.034899932438588" accel="1.0" decel="5.0" sigma="0.0" length="4.5" maxSpeed="3.6208055367884966" />
	<vType id="vType_car_29.36521508861473" accel="1.0" decel="5.0" sigma="0.0" length="4.5" maxSpeed="8.15700419128187" />
	<vType id="vType_car_9.538269525573993" accel="1.0" decel="5.0" sigma="0.0" length="4.5" maxSpeed="2.6495193126594425" />
	<vType id="vType_car_3.7766110539701407" accel="1.0" decel="5.0" sigma="0.0" length="4.5" maxSpeed="1.0490586261028167" />
	<vType id="vType_car_34.20934612949522" accel="1.0" decel="5.0" sigma="0.0" length="4.5" maxSpeed="9.502596147082006" />
	<vType id="vType_car_42.13985260053379" accel="1.0" decel="5.0" sigma="0.0" length="4.5" maxSpeed="11.705514611259387" />
	<vType id="vType_car_14.022104277805923" accel="1.0" decel="5.0" sigma="0.0" length="4.5" maxSpeed="3.895028966057201" />
	<vType id="vType_car_28.896777260137426" accel="1.0" decel="5.0" sigma="0.0" length="4.5" maxSpeed="8.026882572260396" />
	<vType id="vType_car_18.060917746624906" accel="1.0" decel="5.0" sigma="0.0" length="4.5" maxSpeed="5.016921596284696" />
	<vType id="vType_car_27.655573009631084" accel="1.0" decel="5.0" sigma="0.0" length="4.5" maxSpeed="7.682103613786412" />
	<vType id="vType_car_13.897388319700475" accel="1.0" decel="5.0" sigma="0.0" length="4.5" maxSpeed="3.860385644361243" />
	<vType id="vType_car_12.924339276271654" accel="1.0" decel="5.0" sigma="0.0" length="4.5" maxSpeed="3.590094243408793" />
	<vType id="vType_car_20.204938369462198" accel="1.0" decel="5.0" sigma="0.0" length="4.5" maxSpeed="5.612482880406166" />
	<vType id="vType_car_17.215379598208354" accel="1.0" decel="5.0" sigma="0.0" length="4.5" maxSpeed="4.782049888391209" />
	<vType id="vType_car_26.301370416198406" accel="1.0" decel="5.0" sigma="0.0" length="4.5" maxSpeed="7.305936226721779" />
	<vType id="vType_truck_29.695887603950016" accel="1.0" decel="5.0" sigma="0.0" length="8" maxSpeed="8.248857667763893" />
	<vType id="vType_car_29.351106507987282" accel="1.0" decel="5.0" sigma="0.0" length="4.5" maxSpeed="8.153085141107578" />
	<vType id="vType_car_4.802778293892278" accel="1.0" decel="5.0" sigma="0.0" length="4.5" maxSpeed="1.3341050816367437" />
	<vType id="vType_car_8.415726738067706" accel="1.0" decel="5.0" sigma="0.0" length="4.5" maxSpeed="2.3377018716854736" />
	<vType id="vType_car_19.536211601807324" accel="1.0" decel="5.0" sigma="0.0" length="4.5" maxSpeed="5.426725444946479" />
	<vType id="vType_car_16.763146099290214" accel="1.0" decel="5.0" sigma="0.0" length="4.5" maxSpeed="4.656429472025059" />
	<vType id="vType_car_14.556246560356968" accel="1.0" decel="5.0" sigma="0.0" length="4.5" maxSpeed="4.04340182232138" />
	<vType id="vType_car_13.80955404139492" accel="1.0" decel="5.0" sigma="0.0" length="4.5" maxSpeed="3.835987233720811" />
	<vType id="vType_car_12.166456957424295" accel="1.0" decel="5.0" sigma="0.0" length="4.5" maxSpeed="3.379571377062304" />
	<vType id="vType_car_5.313190309634819" accel="1.0" decel="5.0" sigma="0.0" length="4.5" maxSpeed="1.475886197120783" />
	<vType id="vType_car_28.297639574731107" accel="1.0" decel="5.0" sigma="0.0" length="4.5" maxSpeed="7.8604554374253075" />
	<vType id="vType_car_26.07447667785122" accel="1.0" decel="5.0" sigma="0.0" length="4.5" maxSpeed="7.242910188292005" />
	<vType id="vType_car_4.6317735655035355" accel="1.0" decel="5.0" sigma="0.0" length="4.5" maxSpeed="1.2866037681954265" />
	<vType id="vType_car_29.13566286869441" accel="1.0" decel="5.0" sigma="0.0" length="4.5" maxSpeed="8.093239685748447" />
	<vType id="vType_car_15.851400863212534" accel="1.0" decel="5.0" sigma="0.0" length="4.5" maxSpeed="4.403166906447926" />
	<vType id="vType_car_6.533379012848455" accel="1.0" decel="5.0" sigma="0.0" length="4.5" maxSpeed="1.8148275035690151" />
	<vType id="vType_car_21.384292918835374" accel="1.0" decel="5.0" sigma="0.0" length="4.5" maxSpeed="5.9400813663431595" />
	<vType id="vType_car_17.494276266071555" accel="1.0" decel="5.0" sigma="0.0" length="4.5" maxSpeed="4.859521185019877" />
	<vType id="vType_car_20.488117468082123" accel="1.0" decel="5.0" sigma="0.0" length="4.5" maxSpeed="5.691143741133923" />
	<vType id="vType_car_29.12625443482437" accel="1.0" decel="5.0" sigma="0.0" length="4.5" maxSpeed="8.090626231895659" />
	<vType id="vType_car_18.333326258909825" accel="1.0" decel="5.0" sigma="0.0" length="4.5" maxSpeed="5.0925906274749515" />
	<vType id="vType_car_4.04144575018543" accel="1.0" decel="5.0" sigma="0.0" length="4.5" maxSpeed="1.1226238194959526" />
	<vType id="vType_car_16.929879658386017" accel="1.0" decel="5.0" sigma="0.0" length="4.5" maxSpeed="4.702744349551671" />
	<vType id="vType_car_5.342388429744504" accel="1.0" decel="5.0" sigma="0.0" length="4.5" maxSpeed="1.48399678604014" />
	<vType id="vType_car_29.6870800609695" accel="1.0" decel="5.0" sigma="0.0" length="4.5" maxSpeed="8.246411128047082" />
	<vType id="vType_car_26.019731783113155" accel="1.0" decel="5.0" sigma="0.0" length="4.5" maxSpeed="7.227703273086988" />
	<vType id="vType_car_4.2925356885637855" accel="1.0" decel="5.0" sigma="0.0" length="4.5" maxSpeed="1.1923710246010515" />
	<vType id="vType_car_20.00500519058449" accel="1.0" decel="5.0" sigma="0.0" length="4.5" maxSpeed="5.5569458862734695" />
	<vType id="vType_car_28.904177805093052" accel="1.0" decel="5.0" sigma="0.0" length="4.5" maxSpeed="8.028938279192515" />
	<vType id="vType_car_21.65130588595322" accel="1.0" decel="5.0" sigma="0.0" length="4.5" maxSpeed="6.014251634987006" />
	<vType id="vType_car_19.92092472424622" accel="1.0" decel="5.0" sigma="0.0" length="4.5" maxSpeed="5.533590201179505" />
	<vType id="vType_car_21.376038354445033" accel="1.0" decel="5.0" sigma="0.0" length="4.5" maxSpeed="5.9377884317902865" />
	<vType id="vType_car_4.047470449719524" accel="1.0" decel="5.0" sigma="0.0" length="4.5" maxSpeed="1.1242973471443123" />
	<vType id="vType_car_4.674411390629496" accel="1.0" decel="5.0" sigma="0.0" length="4.5" maxSpeed="1.2984476085081933" />
	<vType id="vType_truck_3.3579014101376803" accel="1.0" decel="5.0" sigma="0.0" length="8" maxSpeed="0.9327503917049111" />
	<vType id="vType_car_21.61046419460842" accel="1.0" decel="5.0" sigma="0.0" length="4.5" maxSpeed="6.00290672072456" />
	<vType id="vType_car_35.337439055878846" accel="1.0" decel="5.0" sigma="0.0" length="4.5" maxSpeed="9.815955293299679" />
	<vType id="vType_car_3.687785678175142" accel="1.0" decel="5.0" sigma="0.0" length="4.5" maxSpeed="1.0243849106042062" />
	<vType id="vType_car_40.15714534084766" accel="1.0" decel="5.0" sigma="0.0" length="4.5" maxSpeed="11.154762594679907" />
	<vType id="vType_car_4.515724299980397" accel="1.0" decel="5.0" sigma="0.0" length="4.5" maxSpeed="1.2543678611056657" />
	<vType id="vType_car_4.458308087475099" accel="1.0" decel="5.0" sigma="0.0" length="4.5" maxSpeed="1.2384189131875274" />
	<vType id="vType_car_37.35165549388979" accel="1.0" decel="5.0" sigma="0.0" length="4.5" maxSpeed="10.37545985941383" />
	<vType id="vType_car_6.4968007472383285" accel="1.0" decel="5.0" sigma="0.0" length="4.5" maxSpeed="1.8046668742328689" />
	<vType id="vType_car_23.667953722752436" accel="1.0" decel="5.0" sigma="0.0" length="4.5" maxSpeed="6.574431589653455" />
	<vType id="vType_car_32.586391983873874" accel="1.0" decel="5.0" sigma="0.0" length="4.5" maxSpeed="9.051775551076076" />
	<vType id="vType_car_38.12747545639126" accel="1.0" decel="5.0" sigma="0.0" length="4.5" maxSpeed="10.590965404553128" />
	<vType id="vType_car_5.017001235223545" accel="1.0" decel="5.0" sigma="0.0" length="4.5" maxSpeed="1.3936114542287625" />
	<vType id="vType_car_41.5549509327984" accel="1.0" decel="5.0" sigma="0.0" length="4.5" maxSpeed="11.543041925777333" />
	<vType id="vType_car_36.17826621973209" accel="1.0" decel="5.0" sigma="0.0" length="4.5" maxSpeed="10.049518394370024" />
	<vType id="vType_truck_3.9819035837087076" accel="1.0" decel="5.0" sigma="0.0" length="8" maxSpeed="1.1060843288079742" />
	<vType id="vType_car_57.79901325891995" accel="1.0" decel="5.0" sigma="0.0" length="4.5" maxSpeed="16.055281460811095" />
	<vType id="vType_car_41.63813907903447" accel="1.0" decel="5.0" sigma="0.0" length="4.5" maxSpeed="11.56614974417624" />
	<vType id="vType_car_4.33036802677758" accel="1.0" decel="5.0" sigma="0.0" length="4.5" maxSpeed="1.2028800074382167" />
	<vType id="vType_car_51.55280486841445" accel="1.0" decel="5.0" sigma="0.0" length="4.5" maxSpeed="14.320223574559568" />
	<vType id="vType_car_7.557194283555031" accel="1.0" decel="5.0" sigma="0.0" length="4.5" maxSpeed="2.099220634320842" />
	<vType id="vType_car_4.368812533472264" accel="1.0" decel="5.0" sigma="0.0" length="4.5" maxSpeed="1.2135590370756288" />
	<vType id="vType_car_4.1688264222397935" accel="1.0" decel="5.0" sigma="0.0" length="4.5" maxSpeed="1.1580073395110537" />
    <vType id="vType_car_6.3309772643375615" accel="1.0" decel="5.0" sigma="0.0" length="4.5" maxSpeed="1.7586047956493225" />
	<vType id="vType_car_12.332534797978049" accel="1.0" decel="5.0" sigma="0.0" length="4.5" maxSpeed="3.425704110549458" />
	<vType id="vType_car_30.362171923515046" accel="1.0" decel="5.0" sigma="0.0" length="4.5" maxSpeed="8.433936645420847" />
	<vType id="vType_car_9.11004247910951" accel="1.0" decel="5.0" sigma="0.0" length="4.5" maxSpeed="2.530567355308197" />
	<vType id="vType_car_28.640575469411505" accel="1.0" decel="5.0" sigma="0.0" length="4.5" maxSpeed="7.955715408169862" />
	<vType id="vType_car_4.456001688856502" accel="1.0" decel="5.0" sigma="0.0" length="4.5" maxSpeed="1.237778246904584" />
	<vType id="vType_car_33.35507406353106" accel="1.0" decel="5.0" sigma="0.0" length="4.5" maxSpeed="9.265298350980851" />
	<vType id="vType_car_3.4654375090160556" accel="1.0" decel="5.0" sigma="0.0" length="4.5" maxSpeed="0.9626215302822376" />
	<vType id="vType_car_3.9439655489813177" accel="1.0" decel="5.0" sigma="0.0" length="4.5" maxSpeed="1.0955459858281438" />
	<vType id="vType_car_4.990130309797918" accel="1.0" decel="5.0" sigma="0.0" length="4.5" maxSpeed="1.3861473082771993" />
	<vType id="vType_car_26.523091750276528" accel="1.0" decel="5.0" sigma="0.0" length="4.5" maxSpeed="7.367525486187924" />
	<vType id="vType_car_6.4762840542054105" accel="1.0" decel="5.0" sigma="0.0" length="4.5" maxSpeed="1.7989677928348362" />
	<vType id="vType_car_26.879090557621158" accel="1.0" decel="5.0" sigma="0.0" length="4.5" maxSpeed="7.466414043783654" />
	<vType id="vType_car_9.315568044674528" accel="1.0" decel="5.0" sigma="0.0" length="4.5" maxSpeed="2.587657790187369" />
	<vType id="vType_car_9.476309091006383" accel="1.0" decel="5.0" sigma="0.0" length="4.5" maxSpeed="2.6323080808351063" />
	<vType id="vType_car_34.06889978335676" accel="1.0" decel="5.0" sigma="0.0" length="4.5" maxSpeed="9.463583273154656" />
	<vType id="vType_car_4.763290436404175" accel="1.0" decel="5.0" sigma="0.0" length="4.5" maxSpeed="1.3231362323344928" />
	<vType id="vType_car_4.984361628070824" accel="1.0" decel="5.0" sigma="0.0" length="4.5" maxSpeed="1.3845448966863398" />
	<vType id="vType_car_12.013017634108055" accel="1.0" decel="5.0" sigma="0.0" length="4.5" maxSpeed="3.336949342807793" />
	<vType id="vType_car_4.169396715034214" accel="1.0" decel="5.0" sigma="0.0" length="4.5" maxSpeed="1.1581657541761705" />
	<vType id="vType_car_31.66797197159832" accel="1.0" decel="5.0" sigma="0.0" length="4.5" maxSpeed="8.796658880999534" />
	<vType id="vType_car_7.526183900301035" accel="1.0" decel="5.0" sigma="0.0" length="4.5" maxSpeed="2.0906066389725098" />
	<vType id="vType_car_31.34295521430059" accel="1.0" decel="5.0" sigma="0.0" length="4.5" maxSpeed="8.706376448416831" />
	<vType id="vType_car_11.342648727512117" accel="1.0" decel="5.0" sigma="0.0" length="4.5" maxSpeed="3.1507357576422548" />
	<vType id="vType_car_7.55527817280978" accel="1.0" decel="5.0" sigma="0.0" length="4.5" maxSpeed="2.09868838133605" />
	<vType id="vType_car_28.928947807750976" accel="1.0" decel="5.0" sigma="0.0" length="4.5" maxSpeed="8.035818835486381" />
	<vType id="vType_car_19.65149117670965" accel="1.0" decel="5.0" sigma="0.0" length="4.5" maxSpeed="5.458747549086014" />
	<vType id="vType_car_8.002686868089514" accel="1.0" decel="5.0" sigma="0.0" length="4.5" maxSpeed="2.2229685744693093" />
	<vType id="vType_car_64.2854530726957" accel="1.0" decel="5.0" sigma="0.0" length="4.5" maxSpeed="17.857070297971028" />
	<vType id="vType_car_3.8250557331727566" accel="1.0" decel="5.0" sigma="0.0" length="4.5" maxSpeed="1.062515481436877" />
	<vType id="vType_car_9.169491102350042" accel="1.0" decel="5.0" sigma="0.0" length="4.5" maxSpeed="2.5470808617639005" />
	<vType id="vType_car_31.62713446025743" accel="1.0" decel="5.0" sigma="0.0" length="4.5" maxSpeed="8.785315127849286" />
	<vType id="vType_car_10.695020703564648" accel="1.0" decel="5.0" sigma="0.0" length="4.5" maxSpeed="2.9708390843235133" />
	<vType id="vType_car_11.79724323592165" accel="1.0" decel="5.0" sigma="0.0" length="4.5" maxSpeed="3.277012009978236" />
	<vType id="vType_car_3.8603414136717586" accel="1.0" decel="5.0" sigma="0.0" length="4.5" maxSpeed="1.0723170593532663" />
	<vType id="vType_car_12.155629400929715" accel="1.0" decel="5.0" sigma="0.0" length="4.5" maxSpeed="3.3765637224804763" />
	<vType id="vType_car_26.819976392552203" accel="1.0" decel="5.0" sigma="0.0" length="4.5" maxSpeed="7.449993442375612" />
	<vType id="vType_car_16.130583114663292" accel="1.0" decel="5.0" sigma="0.0" length="4.5" maxSpeed="4.480717531850915" />
	<vType id="vType_car_13.046992139156838" accel="1.0" decel="5.0" sigma="0.0" length="4.5" maxSpeed="3.6241644830991215" />
	<vType id="vType_car_20.178804046639414" accel="1.0" decel="5.0" sigma="0.0" length="4.5" maxSpeed="5.605223346288726" />
	<vType id="vType_car_5.164870064274084" accel="1.0" decel="5.0" sigma="0.0" length="4.5" maxSpeed="1.4346861289650235" />
	<vType id="vType_car_13.843479806682495" accel="1.0" decel="5.0" sigma="0.0" length="4.5" maxSpeed="3.845411057411804" />
	<vType id="vType_car_18.58424453279025" accel="1.0" decel="5.0" sigma="0.0" length="4.5" maxSpeed="5.162290147997292" />
	<vType id="vType_car_11.979584479922721" accel="1.0" decel="5.0" sigma="0.0" length="4.5" maxSpeed="3.327662355534089" />
	<vType id="vType_car_6.223417853943155" accel="1.0" decel="5.0" sigma="0.0" length="4.5" maxSpeed="1.7287271816508762" />
	<vType id="vType_car_4.970798210963969" accel="1.0" decel="5.0" sigma="0.0" length="4.5" maxSpeed="1.3807772808233247" />
	<vType id="vType_truck_23.75195572281999" accel="1.0" decel="5.0" sigma="0.0" length="8" maxSpeed="6.597765478561108" />
	<vType id="vType_car_11.09310463065497" accel="1.0" decel="5.0" sigma="0.0" length="4.5" maxSpeed="3.081417952959714" />
	<vType id="vType_car_28.981251324605687" accel="1.0" decel="5.0" sigma="0.0" length="4.5" maxSpeed="8.050347590168245" />
	<vType id="vType_truck_15.11055634561956" accel="1.0" decel="5.0" sigma="0.0" length="8" maxSpeed="4.1973767626721" />
	<vType id="vType_car_12.461064873823304" accel="1.0" decel="5.0" sigma="0.0" length="4.5" maxSpeed="3.461406909395362" />
	<vType id="vType_car_8.380947872522425" accel="1.0" decel="5.0" sigma="0.0" length="4.5" maxSpeed="2.3280410757006735" />
	<vType id="vType_car_9.786458326121044" accel="1.0" decel="5.0" sigma="0.0" length="4.5" maxSpeed="2.7184606461447345" />
	<vType id="vType_car_34.19618674770129" accel="1.0" decel="5.0" sigma="0.0" length="4.5" maxSpeed="9.498940763250358" />
	<vType id="vType_car_4.59790161938618" accel="1.0" decel="5.0" sigma="0.0" length="4.5" maxSpeed="1.2771948942739388" />
	<vType id="vType_car_6.71388425445645" accel="1.0" decel="5.0" sigma="0.0" length="4.5" maxSpeed="1.8649678484601249" />
	<vType id="vType_car_48.13288079208586" accel="1.0" decel="5.0" sigma="0.0" length="4.5" maxSpeed="13.370244664468293" />
	<vType id="vType_car_4.722048858006112" accel="1.0" decel="5.0" sigma="0.0" length="4.5" maxSpeed="1.3116802383350312" />
	<vType id="vType_car_86.74425674519117" accel="1.0" decel="5.0" sigma="0.0" length="4.5" maxSpeed="24.095626873664212" />
	<vType id="vType_car_26.817000742511524" accel="1.0" decel="5.0" sigma="0.0" length="4.5" maxSpeed="7.449166872919868" />
	<vType id="vType_car_10.743274562298653" accel="1.0" decel="5.0" sigma="0.0" length="4.5" maxSpeed="2.984242933971848" />
	<vType id="vType_car_10.417438530466306" accel="1.0" decel="5.0" sigma="0.0" length="4.5" maxSpeed="2.8937329251295294" />
	<vType id="vType_car_22.92048760723842" accel="1.0" decel="5.0" sigma="0.0" length="4.5" maxSpeed="6.366802113121784" />
	<vType id="vType_car_4.625899644252834" accel="1.0" decel="5.0" sigma="0.0" length="4.5" maxSpeed="1.284972123403565" />
	<vType id="vType_car_19.66282510691313" accel="1.0" decel="5.0" sigma="0.0" length="4.5" maxSpeed="5.461895863031424" />
	<vType id="vType_car_15.158564554965043" accel="1.0" decel="5.0" sigma="0.0" length="4.5" maxSpeed="4.2107123763791785" />
	<vType id="vType_car_32.79295710929883" accel="1.0" decel="5.0" sigma="0.0" length="4.5" maxSpeed="9.10915475258301" />
	<vType id="vType_car_16.38652935891358" accel="1.0" decel="5.0" sigma="0.0" length="4.5" maxSpeed="4.551813710809328" />
	<vType id="vType_car_20.331345643939137" accel="1.0" decel="5.0" sigma="0.0" length="4.5" maxSpeed="5.647596012205316" />
	<vType id="vType_car_16.59892567803557" accel="1.0" decel="5.0" sigma="0.0" length="4.5" maxSpeed="4.610812688343214" />
	<vType id="vType_bus_41.09352176586484" accel="1.0" decel="5.0" sigma="0.0" length="13" maxSpeed="11.414867157184679" />
	<vType id="vType_car_35.305613476629226" accel="1.0" decel="5.0" sigma="0.0" length="4.5" maxSpeed="9.807114854619229" />
	<vType id="vType_car_3.9857050899564768" accel="1.0" decel="5.0" sigma="0.0" length="4.5" maxSpeed="1.1071403027656879" />
	<vType id="vType_car_16.757804974699127" accel="1.0" decel="5.0" sigma="0.0" length="4.5" maxSpeed="4.654945826305313" />
	<vType id="vType_car_15.51757330018602" accel="1.0" decel="5.0" sigma="0.0" length="4.5" maxSpeed="4.31043702782945" />
	<vType id="vType_car_33.73915639783374" accel="1.0" decel="5.0" sigma="0.0" length="4.5" maxSpeed="9.37198788828715" />
	<vType id="vType_car_18.827720318044914" accel="1.0" decel="5.0" sigma="0.0" length="4.5" maxSpeed="5.229922310568032" />
	<vType id="vType_car_3.662134119562998" accel="1.0" decel="5.0" sigma="0.0" length="4.5" maxSpeed="1.0172594776563884" />
	<vType id="vType_car_20.340571596954362" accel="1.0" decel="5.0" sigma="0.0" length="4.5" maxSpeed="5.650158776931767" />
	<vType id="vType_car_5.5042546759527" accel="1.0" decel="5.0" sigma="0.0" length="4.5" maxSpeed="1.5289596322090833" />
	<vType id="vType_car_19.99362797115484" accel="1.0" decel="5.0" sigma="0.0" length="4.5" maxSpeed="5.553785547543011" />
	<vType id="vType_car_18.978476231915174" accel="1.0" decel="5.0" sigma="0.0" length="4.5" maxSpeed="5.27179895330977" />
	<vType id="vType_car_29.05006003200488" accel="1.0" decel="5.0" sigma="0.0" length="4.5" maxSpeed="8.069461120001355" />
	<vType id="vType_truck_30.99803496762464" accel="1.0" decel="5.0" sigma="0.0" length="8" maxSpeed="8.610565268784622" />
	<vType id="vType_car_3.987573580377151" accel="1.0" decel="5.0" sigma="0.0" length="4.5" maxSpeed="1.107659327882542" />
	<vType id="vType_car_26.19986626099962" accel="1.0" decel="5.0" sigma="0.0" length="4.5" maxSpeed="7.27774062805545" />
	<vType id="vType_car_29.80293295752376" accel="1.0" decel="5.0" sigma="0.0" length="4.5" maxSpeed="8.278592488201044" />
	<vType id="vType_car_3.5837940274455136" accel="1.0" decel="5.0" sigma="0.0" length="4.5" maxSpeed="0.9954983409570871" />
	<vType id="vType_car_4.091897229331037" accel="1.0" decel="5.0" sigma="0.0" length="4.5" maxSpeed="1.1366381192586215" />
	<vType id="vType_car_13.24815139244244" accel="1.0" decel="5.0" sigma="0.0" length="4.5" maxSpeed="3.680042053456233" />
	<vType id="vType_car_17.563203516746622" accel="1.0" decel="5.0" sigma="0.0" length="4.5" maxSpeed="4.878667643540728" />
	<vType id="vType_car_5.877952781751088" accel="1.0" decel="5.0" sigma="0.0" length="4.5" maxSpeed="1.6327646615975244" />
	<vType id="vType_car_5.03685211520652" accel="1.0" decel="5.0" sigma="0.0" length="4.5" maxSpeed="1.3991255875573667" />
	<vType id="vType_car_3.7776390864048905" accel="1.0" decel="5.0" sigma="0.0" length="4.5" maxSpeed="1.0493441906680252" />
	<vType id="vType_car_2.8164880258878244" accel="1.0" decel="5.0" sigma="0.0" length="4.5" maxSpeed="0.7823577849688401" />
	<vType id="vType_car_31.729580700537564" accel="1.0" decel="5.0" sigma="0.0" length="4.5" maxSpeed="8.81377241681599" />
	<vType id="vType_car_14.281927576310876" accel="1.0" decel="5.0" sigma="0.0" length="4.5" maxSpeed="3.9672021045307986" />
	<vType id="vType_car_4.187641586881398" accel="1.0" decel="5.0" sigma="0.0" length="4.5" maxSpeed="1.1632337741337215" />
	<vType id="vType_car_23.73374136523795" accel="1.0" decel="5.0" sigma="0.0" length="4.5" maxSpeed="6.592705934788319" />
	<vType id="vType_truck_28.854098683494804" accel="1.0" decel="5.0" sigma="0.0" length="8" maxSpeed="8.01502741208189" />
	<vType id="vType_car_3.408824129227344" accel="1.0" decel="5.0" sigma="0.0" length="4.5" maxSpeed="0.9468955914520399" />
	<vType id="vType_car_34.63625040576201" accel="1.0" decel="5.0" sigma="0.0" length="4.5" maxSpeed="9.621180668267225" />