<?xml version='1.0' encoding='utf-8'?>
<routes><vType id="vType_car_18.782616295988856" accel="1.0" decel="5.0" sigma="0.0" length="4.5" maxSpeed="5.2173934155524595" /><vType id="vType_car_24.801885082671195" accel="1.0" decel="5.0" sigma="0.0" length="4.5" maxSpeed="6.8894125229642205" /><vType id="vType_car_19.305317979564446" accel="1.0" decel="5.0" sigma="0.0" length="4.5" maxSpeed="5.36258832765679" /><vType id="vType_car_12.19427319528282" accel="1.0" decel="5.0" sigma="0.0" length="4.5" maxSpeed="3.387298109800783" /><vType id="vType_car_8.252694927494925" accel="1.0" decel="5.0" sigma="0.0" length="4.5" maxSpeed="2.292415257637479" /><vType id="vType_car_11.92842745082296" accel="1.0" decel="5.0" sigma="0.0" length="4.5" maxSpeed="3.3134520696730445" /><vType id="vType_car_36.35184190939578" accel="1.0" decel="5.0" sigma="0.0" length="4.5" maxSpeed="10.09773386372105" /><vType id="vType_car_25.02161364249702" accel="1.0" decel="5.0" sigma="0.0" length="4.5" maxSpeed="6.95044823402695" /><vType id="vType_car_3.777726317540352" accel="1.0" decel="5.0" sigma="0.0" length="4.5" maxSpeed="1.0493684215389867" /><vType id="vType_car_3.0756183665143717" accel="1.0" decel="5.0" sigma="0.0" length="4.5" maxSpeed="0.854338435142881" /><vType id="vType_car_0.8904186321998894" accel="1.0" decel="5.0" sigma="0.0" length="4.5" maxSpeed="0.2473385089444137" /><vType id="vType_car_24.649199638438382" accel="1.0" decel="5.0" sigma="0.0" length="4.5" maxSpeed="6.846999899566217" /><vType id="vType_car_51.17638413251105" accel="1.0" decel="5.0" sigma="0.0" length="4.5" maxSpeed="14.215662259030848" /><vType id="vType_car_23.260001284615903" accel="1.0" decel="5.0" sigma="0.0" length="4.5" maxSpeed="6.461111467948862" /><vType id="vType_car_2.591659819488989" accel="1.0" decel="5.0" sigma="0.0" length="4.5" maxSpeed="0.7199055054136081" /><vType id="vType_car_43.63444888898099" accel="1.0" decel="5.0" sigma="0.0" length="4.5" maxSpeed="12.120680246939164" /><vType id="vType_car_29.571596418626186" accel="1.0" decel="5.0" sigma="0.0" length="4.5" maxSpeed="8.214332338507274" /><vType id="vType_car_35.4824648970701" accel="1.0" decel="5.0" sigma="0.0" length="4.5" maxSpeed="9.85624024918614" /><vType id="vType_car_28.103936497182566" accel="1.0" decel="5.0" sigma="0.0" length="4.5" maxSpeed="7.806649026995157" /><vType id="vType_car_1.9938000009240748" accel="1.0" decel="5.0" sigma="0.0" length="4.5" maxSpeed="0.5538333335900207" /><vType id="vType_car_51.2665735120236" accel="1.0" decel="5.0" sigma="0.0" length="4.5" maxSpeed="14.240714864450998" /><vType id="vType_car_14.246559524283706" accel="1.0" decel="5.0" sigma="0.0" length="4.5" maxSpeed="3.9573776456343626" /><vType id="vType_car_31.35279149115643" accel="1.0" decel="5.0" sigma="0.0" length="4.5" maxSpeed="8.709108747543453" /><vType id="vType_car_8.437783559014882" accel="1.0" decel="5.0" sigma="0.0" length="4.5" maxSpeed="2.3438287663930226" /><vType id="vType_car_8.433321812816121" accel="1.0" decel="5.0" sigma="0.0" length="4.5" maxSpeed="2.3425893924489225" /><vType id="vType_car_9.283991889094485" accel="1.0" decel="5.0" sigma="0.0" length="4.5" maxSpeed="2.5788866358595794" /><vType id="vType_car_37.78288068686452" accel="1.0" decel="5.0" sigma="0.0" length="4.5" maxSpeed="10.495244635240145" /><vType id="vType_car_32.49573028717545" accel="1.0" decel="5.0" sigma="0.0" length="4.5" maxSpeed="9.026591746437624" /><vType id="vType_car_62.72328183167246" accel="1.0" decel="5.0" sigma="0.0" length="4.5" maxSpeed="17.42313384213124" /><vType id="vType_car_4.984187137961436" accel="1.0" decel="5.0" sigma="0.0" length="4.5" maxSpeed="1.3844964272115101" /><vType id="vType_car_31.447769161566185" accel="1.0" decel="5.0" sigma="0.0" length="4.5" maxSpeed="8.735491433768384" /><vType id="vType_car_38.29949394996932" accel="1.0" decel="5.0" sigma="0.0" length="4.5" maxSpeed="10.638748319435921" /><vType id="vType_car_63.94755913646371" accel="1.0" decel="5.0" sigma="0.0" length="4.5" maxSpeed="17.76321087123992" /><vType id="vType_car_5.2868243239542805" accel="1.0" decel="5.0" sigma="0.0" length="4.5" maxSpeed="1.4685623122095224" /><vType id="vType_car_31.33965276319935" accel="1.0" decel="5.0" sigma="0.0" length="4.5" maxSpeed="8.705459100888708" /><vType id="vType_car_4.631569137205698" accel="1.0" decel="5.0" sigma="0.0" length="4.5" maxSpeed="1.2865469825571383" /><vType id="vType_car_32.089271783025204" accel="1.0" decel="5.0" sigma="0.0" length="4.5" maxSpeed="8.91368660639589" /><vType id="vType_car_5.250558076394996" accel="1.0" decel="5.0" sigma="0.0" length="4.5" maxSpeed="1.4584883545541656" /><vType id="vType_car_41.6018990529998" accel="1.0" decel="5.0" sigma="0.0" length="4.5" maxSpeed="11.55608307027772" /><vType id="vType_car_9.169782272869462" accel="1.0" decel="5.0" sigma="0.0" length="4.5" maxSpeed="2.5471617424637394" /><vType id="vType_car_4.407347370463744" accel="1.0" decel="5.0" sigma="0.0" length="4.5" maxSpeed="1.224263158462151" /><vType id="vType_car_16.309150649281662" accel="1.0" decel="5.0" sigma="0.0" length="4.5" maxSpeed="4.530319624800462" /><vType id="vType_car_23.225265613005483" accel="1.0" decel="5.0" sigma="0.0" length="4.5" maxSpeed="6.451462670279301" /><vType id="vType_car_5.342511793199336" accel="1.0" decel="5.0" sigma="0.0" length="4.5" maxSpeed="1.484031053666482" /><vType id="vType_car_30.01537480416341" accel="1.0" decel="5.0" sigma="0.0" length="4.5" maxSpeed="8.337604112267615" /><vType id="vType_car_23.513405110371814" accel="1.0" decel="5.0" sigma="0.0" length="4.5" maxSpeed="6.531501419547726" /><vType id="vType_car_24.338213318341104" accel="1.0" decel="5.0" sigma="0.0" length="4.5" maxSpeed="6.760614810650306" /><vType id="vType_car_16.84899118861669" accel="1.0" decel="5.0" sigma="0.0" length="4.5" maxSpeed="4.680275330171303" /><vType id="vType_car_27.573722297858318" accel="1.0" decel="5.0" sigma="0.0" length="4.5" maxSpeed="7.659367304960644" /><vType id="vType_car_23.443769103753795" accel="1.0" decel="5.0" sigma="0.0" length="4.5" maxSpeed="6.512158084376054" /><vType id="vType_car_24.915489976061654" accel="1.0" decel="5.0" sigma="0.0" length="4.5" maxSpeed="6.920969437794904" /><vType id="vType_car_2.455522106401229" accel="1.0" decel="5.0" sigma="0.0" length="4.5" maxSpeed="0.6820894740003414" /><vType id="vType_car_22.349964632110474" accel="1.0" decel="5.0" sigma="0.0" length="4.5" maxSpeed="6.208323508919576" /><vType id="vType_car_17.74495998394528" accel="1.0" decel="5.0" sigma="0.0" length="4.5" maxSpeed="4.929155551095911" /><vType id="vType_car_10.304470299933623" accel="1.0" decel="5.0" sigma="0.0" length="4.5" maxSpeed="2.862352861092673" /><vType id="vType_car_10.063017405433804" accel="1.0" decel="5.0" sigma="0.0" length="4.5" maxSpeed="2.7952826126205013" /><vType id="vType_car_5.465565859242655" accel="1.0" decel="5.0" sigma="0.0" length="4.5" maxSpeed="1.5182127386785151" /><vType id="vType_car_5.129870686986868" accel="1.0" decel="5.0" sigma="0.0" length="4.5" maxSpeed="1.4249640797185743" /><vType id="vType_car_9.402145855594503" accel="1.0" decel="5.0" sigma="0.0" length="4.5" maxSpeed="2.611707182109584" /><vType id="vType_car_3.866768180760341" accel="1.0" decel="5.0" sigma="0.0" length="4.5" maxSpeed="1.074102272433428" /><route id="route_north_to_east" edges="north_to_center center_to_east" /><route id="route_north_to_south" edges="north_to_center center_to_south" /><route id="route_north_to_west" edges="north_to_center center_to_west" /><route id="route_east_to_west" edges="east_to_center center_to_west" /><route id="route_east_to_south" edges="east_to_center center_to_south" /><route id="route_east_to_north" edges="east_to_center center_to_north" /><route id="route_south_to_west" edges="south_to_center center_to_west" /><route id="route_south_to_north" edges="south_to_center center_to_north" /><route id="route_south_to_east" edges="south_to_center center_to_east" /><route id="route_west_to_south" edges="west_to_center center_to_south" /><route id="route_west_to_north" edges="west_to_center center_to_north" /><route id="route_west_to_east" edges="west_to_center center_to_east" /><vehicle id="veh223" type="vType_car_18.782616295988856" route="route_west_to_north" depart="0.03" /><vehicle id="veh232" type="vType_car_24.801885082671195" route="route_west_to_south" depart="0.03" /><vehicle id="veh228" type="vType_car_19.305317979564446" route="route_west_to_north" depart="0.03" /><vehicle id="veh359" type="vType_car_8.252694927494925" route="route_north_to_east" depart="0.03" /><vehicle id="veh361" type="vType_car_11.92842745082296" route="route_north_to_south" depart="0.03" /><vehicle id="veh290" type="vType_car_25.02161364249702" route="route_east_to_west" depart="0.03" /><vehicle id="veh369" type="vType_car_51.17638413251105" route="route_west_to_east" depart="5.67" /><vehicle id="veh372" type="vType_car_23.260001284615903" route="route_west_to_north" depart="7.04" /><vehicle id="veh375" type="vType_car_43.63444888898099" route="route_west_to_east" depart="8.87" /><vehicle id="veh376" type="vType_car_29.571596418626186" route="route_west_to_north" depart="10.44" /><vehicle id="veh379" type="vType_car_35.4824648970701" route="route_west_to_south" depart="12.14" /><vehicle id="veh380" type="vType_car_28.103936497182566" route="route_west_to_north" depart="12.21" /><vehicle id="veh385" type="vType_car_51.2665735120236" route="route_west_to_east" depart="14.91" /><vehicle id="veh386" type="vType_car_14.246559524283706" route="route_west_to_north" depart="15.08" /><vehicle id="veh387" type="vType_car_31.35279149115643" route="route_east_to_west" depart="17.28" /><vehicle id="veh391" type="vType_car_8.433321812816121" route="route_east_to_north" depart="19.04" /><vehicle id="veh393" type="vType_car_9.283991889094485" route="route_east_to_north" depart="19.88" /><vehicle id="veh396" type="vType_car_37.78288068686452" route="route_east_to_west" depart="20.15" /><vehicle id="veh397" type="vType_car_32.49573028717545" route="route_west_to_south" depart="20.38" /><vehicle id="veh398" type="vType_car_62.72328183167246" route="route_west_to_east" depart="21.38" /><vehicle id="veh402" type="vType_car_31.447769161566185" route="route_east_to_west" depart="23.05" /><vehicle id="veh405" type="vType_car_38.29949394996932" route="route_east_to_west" depart="26.15" /><vehicle id="veh409" type="vType_car_63.94755913646371" route="route_west_to_east" depart="27.75" /><vehicle id="veh416" type="vType_car_32.089271783025204" route="route_west_to_south" depart="33.59" /><vehicle id="veh418" type="vType_car_41.6018990529998" route="route_east_to_west" depart="36.49" /><vehicle id="veh421" type="vType_car_16.309150649281662" route="route_north_to_east" depart="42.59" /><vehicle id="veh422" type="vType_car_23.225265613005483" route="route_north_to_west" depart="42.79" /><vehicle id="veh425" type="vType_car_30.01537480416341" route="route_north_to_south" depart="46.13" /><vehicle id="veh426" type="vType_car_23.513405110371814" route="route_north_to_east" depart="46.13" /><vehicle id="veh428" type="vType_car_24.338213318341104" route="route_north_to_west" depart="48.30" /><vehicle id="veh429" type="vType_car_16.84899118861669" route="route_north_to_east" depart="48.33" /><vehicle id="veh430" type="vType_car_27.573722297858318" route="route_north_to_south" depart="49.90" /><vehicle id="veh431" type="vType_car_23.443769103753795" route="route_north_to_south" depart="50.20" /><vehicle id="veh432" type="vType_car_24.915489976061654" route="route_north_to_west" depart="50.30" /><vehicle id="veh437" type="vType_car_22.349964632110474" route="route_north_to_south" depart="53.93" /><vehicle id="veh438" type="vType_car_17.74495998394528" route="route_north_to_east" depart="54.17" /></routes>