<?xml version='1.0' encoding='utf-8'?>
<routes><vType id="vType_car_15.636763251115262" accel="1.0" decel="5.0" sigma="0.0" length="4.5" maxSpeed="4.343545347532017" /><vType id="vType_car_15.794388074824365" accel="1.0" decel="5.0" sigma="0.0" length="4.5" maxSpeed="4.387330020784546" /><vType id="vType_car_22.811587861350567" accel="1.0" decel="5.0" sigma="0.0" length="4.5" maxSpeed="6.33655218370849" /><vType id="vType_car_21.513298634546533" accel="1.0" decel="5.0" sigma="0.0" length="4.5" maxSpeed="5.975916287374037" /><vType id="vType_car_16.593471066752965" accel="1.0" decel="5.0" sigma="0.0" length="4.5" maxSpeed="4.6092975185424905" /><vType id="vType_car_20.35104049483843" accel="1.0" decel="5.0" sigma="0.0" length="4.5" maxSpeed="5.653066804121786" /><vType id="vType_car_17.630310024758696" accel="1.0" decel="5.0" sigma="0.0" length="4.5" maxSpeed="4.897308340210749" /><vType id="vType_car_12.828788089585633" accel="1.0" decel="5.0" sigma="0.0" length="4.5" maxSpeed="3.56355224710712" /><vType id="vType_car_23.239987859985042" accel="1.0" decel="5.0" sigma="0.0" length="4.5" maxSpeed="6.4555521833291785" /><vType id="vType_car_74.40815358036214" accel="1.0" decel="5.0" sigma="0.0" length="4.5" maxSpeed="20.668931550100595" /><vType id="vType_car_17.345663448606643" accel="1.0" decel="5.0" sigma="0.0" length="4.5" maxSpeed="4.818239846835179" /><vType id="vType_car_16.686638457039404" accel="1.0" decel="5.0" sigma="0.0" length="4.5" maxSpeed="4.635177349177612" /><vType id="vType_car_21.265240393134114" accel="1.0" decel="5.0" sigma="0.0" length="4.5" maxSpeed="5.907011220315032" /><vType id="vType_car_8.620692116241086" accel="1.0" decel="5.0" sigma="0.0" length="4.5" maxSpeed="2.3946366989558574" /><vType id="vType_car_3.9383285040914258" accel="1.0" decel="5.0" sigma="0.0" length="4.5" maxSpeed="1.0939801400253961" /><vType id="vType_car_3.9459917720160083" accel="1.0" decel="5.0" sigma="0.0" length="4.5" maxSpeed="1.0961088255600022" /><vType id="vType_car_38.9779800242939" accel="1.0" decel="5.0" sigma="0.0" length="4.5" maxSpeed="10.827216673414972" /><vType id="vType_car_31.61341459149754" accel="1.0" decel="5.0" sigma="0.0" length="4.5" maxSpeed="8.78150405319376" /><vType id="vType_car_41.30525413450011" accel="1.0" decel="5.0" sigma="0.0" length="4.5" maxSpeed="11.473681704027808" /><vType id="vType_car_43.307993255167915" accel="1.0" decel="5.0" sigma="0.0" length="4.5" maxSpeed="12.029998126435531" /><vType id="vType_car_11.764821652262686" accel="1.0" decel="5.0" sigma="0.0" length="4.5" maxSpeed="3.268006014517413" /><vType id="vType_car_35.268360998182594" accel="1.0" decel="5.0" sigma="0.0" length="4.5" maxSpeed="9.796766943939609" /><vType id="vType_car_32.36859599351391" accel="1.0" decel="5.0" sigma="0.0" length="4.5" maxSpeed="8.991276664864975" /><vType id="vType_car_33.845560369656475" accel="1.0" decel="5.0" sigma="0.0" length="4.5" maxSpeed="9.401544547126798" /><vType id="vType_car_4.761612315716315" accel="1.0" decel="5.0" sigma="0.0" length="4.5" maxSpeed="1.3226700876989763" /><vType id="vType_car_0.34832913965800594" accel="1.0" decel="5.0" sigma="0.0" length="4.5" maxSpeed="0.09675809434944609" /><vType id="vType_car_13.182498699599948" accel="1.0" decel="5.0" sigma="0.0" length="4.5" maxSpeed="3.661805194333319" /><vType id="vType_car_39.66415207070725" accel="1.0" decel="5.0" sigma="0.0" length="4.5" maxSpeed="11.017820019640903" /><vType id="vType_car_39.19258812086786" accel="1.0" decel="5.0" sigma="0.0" length="4.5" maxSpeed="10.886830033574405" /><vType id="vType_car_37.845200663697156" accel="1.0" decel="5.0" sigma="0.0" length="4.5" maxSpeed="10.512555739915877" /><vType id="vType_car_40.55656215390944" accel="1.0" decel="5.0" sigma="0.0" length="4.5" maxSpeed="11.26571170941929" /><vType id="vType_car_3.4832913965800594" accel="1.0" decel="5.0" sigma="0.0" length="4.5" maxSpeed="0.9675809434944609" /><vType id="vType_car_42.43454126672479" accel="1.0" decel="5.0" sigma="0.0" length="4.5" maxSpeed="11.78737257409022" /><vType id="vType_car_3.843998031120304" accel="1.0" decel="5.0" sigma="0.0" length="4.5" maxSpeed="1.067777230866751" /><vType id="vType_car_26.917915637701313" accel="1.0" decel="5.0" sigma="0.0" length="4.5" maxSpeed="7.477198788250364" /><vType id="vType_car_10.378466442567984" accel="1.0" decel="5.0" sigma="0.0" length="4.5" maxSpeed="2.8829073451577734" /><vType id="vType_car_31.4742844174848" accel="1.0" decel="5.0" sigma="0.0" length="4.5" maxSpeed="8.742856782634666" /><vType id="vType_car_10.31459179771325" accel="1.0" decel="5.0" sigma="0.0" length="4.5" maxSpeed="2.8651643882536804" /><vType id="vType_car_39.359941864503" accel="1.0" decel="5.0" sigma="0.0" length="4.5" maxSpeed="10.933317184584167" /><vType id="vType_car_30.658437338258036" accel="1.0" decel="5.0" sigma="0.0" length="4.5" maxSpeed="8.516232593960565" /><vType id="vType_car_3.7718567042122553" accel="1.0" decel="5.0" sigma="0.0" length="4.5" maxSpeed="1.0477379733922931" /><vType id="vType_car_10.947609190917824" accel="1.0" decel="5.0" sigma="0.0" length="4.5" maxSpeed="3.0410025530327287" /><vType id="vType_car_44.7359881169994" accel="1.0" decel="5.0" sigma="0.0" length="4.5" maxSpeed="12.426663365833166" /><vType id="vType_car_7.682473715658235" accel="1.0" decel="5.0" sigma="0.0" length="4.5" maxSpeed="2.134020476571732" /><vType id="vType_car_5.705879274257082" accel="1.0" decel="5.0" sigma="0.0" length="4.5" maxSpeed="1.5849664650714117" /><vType id="vType_car_4.7462213017431445" accel="1.0" decel="5.0" sigma="0.0" length="4.5" maxSpeed="1.3183948060397623" /><vType id="vType_car_49.74592416130638" accel="1.0" decel="5.0" sigma="0.0" length="4.5" maxSpeed="13.81831226702955" /><vType id="vType_car_9.825827481008615" accel="1.0" decel="5.0" sigma="0.0" length="4.5" maxSpeed="2.729396522502393" /><vType id="vType_car_12.825637767009306" accel="1.0" decel="5.0" sigma="0.0" length="4.5" maxSpeed="3.562677157502585" /><vType id="vType_car_46.77777212011754" accel="1.0" decel="5.0" sigma="0.0" length="4.5" maxSpeed="12.993825588921538" /><vType id="vType_car_38.55940048878588" accel="1.0" decel="5.0" sigma="0.0" length="4.5" maxSpeed="10.710944580218301" /><vType id="vType_car_9.554696664525364" accel="1.0" decel="5.0" sigma="0.0" length="4.5" maxSpeed="2.654082406812601" /><vType id="vType_car_5.506879001433993" accel="1.0" decel="5.0" sigma="0.0" length="4.5" maxSpeed="1.5296886115094424" /><vType id="vType_car_40.44794758648172" accel="1.0" decel="5.0" sigma="0.0" length="4.5" maxSpeed="11.235540996244922" /><vType id="vType_car_50.06923432067308" accel="1.0" decel="5.0" sigma="0.0" length="4.5" maxSpeed="13.908120644631412" /><vType id="vType_car_27.02098771852468" accel="1.0" decel="5.0" sigma="0.0" length="4.5" maxSpeed="7.505829921812411" /><route id="route_north_to_east" edges="north_to_center center_to_east" /><route id="route_north_to_south" edges="north_to_center center_to_south" /><route id="route_north_to_west" edges="north_to_center center_to_west" /><route id="route_east_to_west" edges="east_to_center center_to_west" /><route id="route_east_to_south" edges="east_to_center center_to_south" /><route id="route_east_to_north" edges="east_to_center center_to_north" /><route id="route_south_to_west" edges="south_to_center center_to_west" /><route id="route_south_to_north" edges="south_to_center center_to_north" /><route id="route_south_to_east" edges="south_to_center center_to_east" /><route id="route_west_to_south" edges="west_to_center center_to_south" /><route id="route_west_to_north" edges="west_to_center center_to_north" /><route id="route_west_to_east" edges="west_to_center center_to_east" /><vehicle id="veh551" type="vType_car_15.636763251115262" route="route_west_to_north" depart="0.04" /><vehicle id="veh584" type="vType_car_15.794388074824365" route="route_west_to_north" depart="0.04" /><vehicle id="veh634" type="vType_car_22.811587861350567" route="route_west_to_east" depart="0.04" /><vehicle id="veh652" type="vType_car_21.513298634546533" route="route_west_to_east" depart="0.04" /><vehicle id="veh713" type="vType_car_16.593471066752965" route="route_west_to_north" depart="0.04" /><vehicle id="veh719" type="vType_car_20.35104049483843" route="route_west_to_east" depart="0.04" /><vehicle id="veh732" type="vType_car_17.630310024758696" route="route_east_to_west" depart="0.04" /><vehicle id="veh745" type="vType_car_74.40815358036214" route="route_north_to_south" depart="0.04" /><vehicle id="veh744" type="vType_car_17.345663448606643" route="route_north_to_east" depart="0.04" /><vehicle id="veh750" type="vType_car_16.686638457039404" route="route_south_to_east" depart="0.04" /><vehicle id="veh746" type="vType_car_21.265240393134114" route="route_west_to_east" depart="0.07" /><vehicle id="veh752" type="vType_car_8.620692116241086" route="route_east_to_south" depart="2.93" /><vehicle id="veh759" type="vType_car_38.9779800242939" route="route_west_to_east" depart="12.70" /><vehicle id="veh763" type="vType_car_31.61341459149754" route="route_west_to_east" depart="15.45" /><vehicle id="veh766" type="vType_car_41.30525413450011" route="route_west_to_east" depart="15.77" /><vehicle id="veh769" type="vType_car_43.307993255167915" route="route_west_to_east" depart="17.44" /><vehicle id="veh771" type="vType_car_35.268360998182594" route="route_west_to_south" depart="18.77" /><vehicle id="veh774" type="vType_car_32.36859599351391" route="route_west_to_east" depart="19.21" /><vehicle id="veh775" type="vType_car_33.845560369656475" route="route_west_to_east" depart="19.28" /><vehicle id="veh780" type="vType_car_13.182498699599948" route="route_south_to_east" depart="21.49" /><vehicle id="veh781" type="vType_car_39.66415207070725" route="route_west_to_south" depart="21.52" /><vehicle id="veh783" type="vType_car_39.19258812086786" route="route_west_to_east" depart="22.50" /><vehicle id="veh788" type="vType_car_37.845200663697156" route="route_west_to_east" depart="23.30" /><vehicle id="veh789" type="vType_car_40.55656215390944" route="route_west_to_south" depart="23.80" /><vehicle id="veh791" type="vType_car_42.43454126672479" route="route_west_to_east" depart="26.15" /><vehicle id="veh795" type="vType_car_26.917915637701313" route="route_east_to_west" depart="27.93" /><vehicle id="veh800" type="vType_car_31.4742844174848" route="route_east_to_west" depart="29.23" /><vehicle id="veh802" type="vType_car_10.31459179771325" route="route_east_to_north" depart="29.73" /><vehicle id="veh806" type="vType_car_39.359941864503" route="route_east_to_west" depart="30.20" /><vehicle id="veh807" type="vType_car_30.658437338258036" route="route_east_to_west" depart="30.42" /><vehicle id="veh818" type="vType_car_10.947609190917824" route="route_east_to_north" depart="33.28" /><vehicle id="veh825" type="vType_car_49.74592416130638" route="route_west_to_south" depart="37.00" /><vehicle id="veh830" type="vType_car_12.825637767009306" route="route_east_to_north" depart="43.01" /><vehicle id="veh832" type="vType_car_46.77777212011754" route="route_east_to_west" depart="47.35" /><vehicle id="veh833" type="vType_car_38.55940048878588" route="route_east_to_west" depart="47.35" /><vehicle id="veh839" type="vType_car_40.44794758648172" route="route_east_to_west" depart="50.21" /><vehicle id="veh841" type="vType_car_50.06923432067308" route="route_east_to_west" depart="53.46" /><vehicle id="veh842" type="vType_car_27.02098771852468" route="route_north_to_west" depart="56.50" /></routes>