<?xml version='1.0' encoding='utf-8'?>
<routes><vType id="vType_car_78.68602132000669" accel="1.0" decel="5.0" sigma="0.0" length="4.5" maxSpeed="21.857228144446303" /><vType id="vType_car_23.892801114795247" accel="1.0" decel="5.0" sigma="0.0" length="4.5" maxSpeed="6.636889198554235" /><vType id="vType_car_19.954507086389086" accel="1.0" decel="5.0" sigma="0.0" length="4.5" maxSpeed="5.542918635108079" /><vType id="vType_car_30.039183519601703" accel="1.0" decel="5.0" sigma="0.0" length="4.5" maxSpeed="8.344217644333806" /><vType id="vType_car_25.249180570139476" accel="1.0" decel="5.0" sigma="0.0" length="4.5" maxSpeed="7.013661269483188" /><vType id="vType_car_18.315337423858292" accel="1.0" decel="5.0" sigma="0.0" length="4.5" maxSpeed="5.087593728849526" /><vType id="vType_car_19.11105496023863" accel="1.0" decel="5.0" sigma="0.0" length="4.5" maxSpeed="5.308626377844064" /><vType id="vType_car_24.097384585528136" accel="1.0" decel="5.0" sigma="0.0" length="4.5" maxSpeed="6.693717940424482" /><vType id="vType_car_16.020536838387198" accel="1.0" decel="5.0" sigma="0.0" length="4.5" maxSpeed="4.4501491217742215" /><vType id="vType_car_5.093320336972264" accel="1.0" decel="5.0" sigma="0.0" length="4.5" maxSpeed="1.4148112047145176" /><vType id="vType_car_4.050151161170609" accel="1.0" decel="5.0" sigma="0.0" length="4.5" maxSpeed="1.125041989214058" /><vType id="vType_car_19.261780254781254" accel="1.0" decel="5.0" sigma="0.0" length="4.5" maxSpeed="5.350494515217015" /><vType id="vType_car_17.51575473421936" accel="1.0" decel="5.0" sigma="0.0" length="4.5" maxSpeed="4.865487426172044" /><vType id="vType_car_17.909938384994366" accel="1.0" decel="5.0" sigma="0.0" length="4.5" maxSpeed="4.974982884720657" /><vType id="vType_car_10.661808785114333" accel="1.0" decel="5.0" sigma="0.0" length="4.5" maxSpeed="2.961613551420648" /><vType id="vType_car_19.652419314910478" accel="1.0" decel="5.0" sigma="0.0" length="4.5" maxSpeed="5.459005365252911" /><vType id="vType_car_17.96853373172622" accel="1.0" decel="5.0" sigma="0.0" length="4.5" maxSpeed="4.9912593699239505" /><vType id="vType_car_21.809562808034165" accel="1.0" decel="5.0" sigma="0.0" length="4.5" maxSpeed="6.058211891120601" /><vType id="vType_car_3.7507198439477527" accel="1.0" decel="5.0" sigma="0.0" length="4.5" maxSpeed="1.04186662331882" /><vType id="vType_car_18.36626985756333" accel="1.0" decel="5.0" sigma="0.0" length="4.5" maxSpeed="5.1017416271009255" /><vType id="vType_car_6.808206667263815" accel="1.0" decel="5.0" sigma="0.0" length="4.5" maxSpeed="1.891168518684393" /><vType id="vType_car_20.982123347618817" accel="1.0" decel="5.0" sigma="0.0" length="4.5" maxSpeed="5.828367596560782" /><vType id="vType_car_4.261591548059253" accel="1.0" decel="5.0" sigma="0.0" length="4.5" maxSpeed="1.1837754300164591" /><vType id="vType_car_16.34868025971182" accel="1.0" decel="5.0" sigma="0.0" length="4.5" maxSpeed="4.541300072142172" /><vType id="vType_car_17.059143102349434" accel="1.0" decel="5.0" sigma="0.0" length="4.5" maxSpeed="4.738650861763731" /><vType id="vType_car_24.86855653402519" accel="1.0" decel="5.0" sigma="0.0" length="4.5" maxSpeed="6.907932370562552" /><vType id="vType_car_20.768179262115915" accel="1.0" decel="5.0" sigma="0.0" length="4.5" maxSpeed="5.768938683921087" /><vType id="vType_car_27.16315419579646" accel="1.0" decel="5.0" sigma="0.0" length="4.5" maxSpeed="7.54532060994346" /><vType id="vType_car_31.719756252797104" accel="1.0" decel="5.0" sigma="0.0" length="4.5" maxSpeed="8.81104340355475" /><vType id="vType_car_3.4786242341515528" accel="1.0" decel="5.0" sigma="0.0" length="4.5" maxSpeed="0.9662845094865424" /><vType id="vType_car_4.992114026356297" accel="1.0" decel="5.0" sigma="0.0" length="4.5" maxSpeed="1.3866983406545268" /><vType id="vType_car_30.118187050369386" accel="1.0" decel="5.0" sigma="0.0" length="4.5" maxSpeed="8.366163069547051" /><vType id="vType_car_17.488231018643276" accel="1.0" decel="5.0" sigma="0.0" length="4.5" maxSpeed="4.857841949623132" /><vType id="vType_car_32.42442293479754" accel="1.0" decel="5.0" sigma="0.0" length="4.5" maxSpeed="9.006784148554873" /><vType id="vType_car_16.358317097824347" accel="1.0" decel="5.0" sigma="0.0" length="4.5" maxSpeed="4.543976971617874" /><vType id="vType_car_22.733380660076577" accel="1.0" decel="5.0" sigma="0.0" length="4.5" maxSpeed="6.314827961132382" /><vType id="vType_car_3.9963508013827584" accel="1.0" decel="5.0" sigma="0.0" length="4.5" maxSpeed="1.1100974448285439" /><vType id="vType_car_11.16560693770562" accel="1.0" decel="5.0" sigma="0.0" length="4.5" maxSpeed="3.1015574826960055" /><vType id="vType_car_4.560119055369844" accel="1.0" decel="5.0" sigma="0.0" length="4.5" maxSpeed="1.2666997376027345" /><vType id="vType_car_3.486480637816006" accel="1.0" decel="5.0" sigma="0.0" length="4.5" maxSpeed="0.9684668438377795" /><vType id="vType_car_4.458271265432445" accel="1.0" decel="5.0" sigma="0.0" length="4.5" maxSpeed="1.2384086848423457" /><vType id="vType_car_6.483027045450874" accel="1.0" decel="5.0" sigma="0.0" length="4.5" maxSpeed="1.800840845958576" /><vType id="vType_bus_28.005978721276808" accel="1.0" decel="5.0" sigma="0.0" length="13" maxSpeed="7.779438533688002" /><vType id="vType_car_23.659476143009066" accel="1.0" decel="5.0" sigma="0.0" length="4.5" maxSpeed="6.572076706391407" /><vType id="vType_car_21.344387513926318" accel="1.0" decel="5.0" sigma="0.0" length="4.5" maxSpeed="5.9289965316462" /><vType id="vType_car_25.442434669652084" accel="1.0" decel="5.0" sigma="0.0" length="4.5" maxSpeed="7.067342963792245" /><vType id="vType_car_3.555089210659527" accel="1.0" decel="5.0" sigma="0.0" length="4.5" maxSpeed="0.9875247807387575" /><vType id="vType_car_15.190617485449025" accel="1.0" decel="5.0" sigma="0.0" length="4.5" maxSpeed="4.2196159681802845" /><vType id="vType_car_19.604086657595474" accel="1.0" decel="5.0" sigma="0.0" length="4.5" maxSpeed="5.445579627109853" /><vType id="vType_car_27.805002061417" accel="1.0" decel="5.0" sigma="0.0" length="4.5" maxSpeed="7.723611683726944" /><vType id="vType_car_2.046268422001024" accel="1.0" decel="5.0" sigma="0.0" length="4.5" maxSpeed="0.5684078950002844" /><vType id="vType_car_16.25219935313247" accel="1.0" decel="5.0" sigma="0.0" length="4.5" maxSpeed="4.514499820314575" /><vType id="vType_car_0.969285042000485" accel="1.0" decel="5.0" sigma="0.0" length="4.5" maxSpeed="0.2692458450001347" /><vType id="vType_car_19.557448788947067" accel="1.0" decel="5.0" sigma="0.0" length="4.5" maxSpeed="5.432624663596408" /><vType id="vType_car_4.72215789692544" accel="1.0" decel="5.0" sigma="0.0" length="4.5" maxSpeed="1.3117105269237332" /><vType id="vType_car_23.387017758326436" accel="1.0" decel="5.0" sigma="0.0" length="4.5" maxSpeed="6.496393821757343" /><vType id="vType_car_3.323557240832499" accel="1.0" decel="5.0" sigma="0.0" length="4.5" maxSpeed="0.9232103446756941" /><vType id="vType_car_22.167348536958396" accel="1.0" decel="5.0" sigma="0.0" length="4.5" maxSpeed="6.157596815821776" /><vType id="vType_car_31.046156950315684" accel="1.0" decel="5.0" sigma="0.0" length="4.5" maxSpeed="8.6239324861988" /><vType id="vType_car_4.096955659937328" accel="1.0" decel="5.0" sigma="0.0" length="4.5" maxSpeed="1.13804323887148" /><vType id="vType_car_22.20670756251253" accel="1.0" decel="5.0" sigma="0.0" length="4.5" maxSpeed="6.168529878475702" /><vType id="vType_car_25.09715663061435" accel="1.0" decel="5.0" sigma="0.0" length="4.5" maxSpeed="6.971432397392875" /><vType id="vType_car_19.102394298570875" accel="1.0" decel="5.0" sigma="0.0" length="4.5" maxSpeed="5.30622063849191" /><vType id="vType_car_4.1333593801901225" accel="1.0" decel="5.0" sigma="0.0" length="4.5" maxSpeed="1.148155383386145" /><vType id="vType_car_19.829432552626102" accel="1.0" decel="5.0" sigma="0.0" length="4.5" maxSpeed="5.508175709062806" /><vType id="vType_car_21.423242822690955" accel="1.0" decel="5.0" sigma="0.0" length="4.5" maxSpeed="5.950900784080821" /><vType id="vType_car_4.820916634646341" accel="1.0" decel="5.0" sigma="0.0" length="4.5" maxSpeed="1.3391435096239837" /><vType id="vType_car_22.999495984432546" accel="1.0" decel="5.0" sigma="0.0" length="4.5" maxSpeed="6.388748884564595" /><vType id="vType_car_28.033985608936824" accel="1.0" decel="5.0" sigma="0.0" length="4.5" maxSpeed="7.787218224704673" /><vType id="vType_car_13.75872718761324" accel="1.0" decel="5.0" sigma="0.0" length="4.5" maxSpeed="3.8218686632259002" /><vType id="vType_car_25.753282162018166" accel="1.0" decel="5.0" sigma="0.0" length="4.5" maxSpeed="7.153689489449491" /><vType id="vType_car_26.181291724898013" accel="1.0" decel="5.0" sigma="0.0" length="4.5" maxSpeed="7.272581034693893" /><vType id="vType_car_25.859739966661316" accel="1.0" decel="5.0" sigma="0.0" length="4.5" maxSpeed="7.183261101850365" /><vType id="vType_car_24.10889826936392" accel="1.0" decel="5.0" sigma="0.0" length="4.5" maxSpeed="6.6969161859344215" /><vType id="vType_car_2.671255896599668" accel="1.0" decel="5.0" sigma="0.0" length="4.5" maxSpeed="0.742015526833241" /><vType id="vType_car_16.637257766985947" accel="1.0" decel="5.0" sigma="0.0" length="4.5" maxSpeed="4.6214604908294294" /><vType id="vType_car_20.293865198677686" accel="1.0" decel="5.0" sigma="0.0" length="4.5" maxSpeed="5.637184777410468" /><vType id="vType_car_16.31827733320395" accel="1.0" decel="5.0" sigma="0.0" length="4.5" maxSpeed="4.532854814778875" /><vType id="vType_car_28.33734099509039" accel="1.0" decel="5.0" sigma="0.0" length="4.5" maxSpeed="7.87148360974733" /><vType id="vType_car_16.301195085718575" accel="1.0" decel="5.0" sigma="0.0" length="4.5" maxSpeed="4.528109746032937" /><vType id="vType_car_21.374379767134748" accel="1.0" decel="5.0" sigma="0.0" length="4.5" maxSpeed="5.937327713092985" /><vType id="vType_car_13.139662887077487" accel="1.0" decel="5.0" sigma="0.0" length="4.5" maxSpeed="3.649906357521524" /><vType id="vType_car_31.072184872879202" accel="1.0" decel="5.0" sigma="0.0" length="4.5" maxSpeed="8.631162464688668" /><vType id="vType_car_14.75725068550485" accel="1.0" decel="5.0" sigma="0.0" length="4.5" maxSpeed="4.099236301529125" /><vType id="vType_car_21.703381245590343" accel="1.0" decel="5.0" sigma="0.0" length="4.5" maxSpeed="6.028717012663984" /><vType id="vType_car_3.8340813104715497" accel="1.0" decel="5.0" sigma="0.0" length="4.5" maxSpeed="1.065022586242097" /><vType id="vType_car_31.87576761344492" accel="1.0" decel="5.0" sigma="0.0" length="4.5" maxSpeed="8.854379892623589" /><vType id="vType_car_4.299321476093347" accel="1.0" decel="5.0" sigma="0.0" length="4.5" maxSpeed="1.1942559655814853" /><vType id="vType_car_14.284471292810888" accel="1.0" decel="5.0" sigma="0.0" length="4.5" maxSpeed="3.9679086924474687" /><vType id="vType_car_18.789251498843434" accel="1.0" decel="5.0" sigma="0.0" length="4.5" maxSpeed="5.219236527456509" /><vType id="vType_car_2.6584000012320996" accel="1.0" decel="5.0" sigma="0.0" length="4.5" maxSpeed="0.7384444447866944" /><vType id="vType_car_18.352607242378525" accel="1.0" decel="5.0" sigma="0.0" length="4.5" maxSpeed="5.097946456216257" /><vType id="vType_car_15.295446742821575" accel="1.0" decel="5.0" sigma="0.0" length="4.5" maxSpeed="4.248735206339326" /><vType id="vType_car_3.128872961226284" accel="1.0" decel="5.0" sigma="0.0" length="4.5" maxSpeed="0.8691313781184122" /><vType id="vType_car_32.67367977323723" accel="1.0" decel="5.0" sigma="0.0" length="4.5" maxSpeed="9.076022159232565" /><vType id="vType_car_7.526994814741873" accel="1.0" decel="5.0" sigma="0.0" length="4.5" maxSpeed="2.0908318929838536" /><vType id="vType_car_15.13514125285829" accel="1.0" decel="5.0" sigma="0.0" length="4.5" maxSpeed="4.204205903571747" /><vType id="vType_car_34.2797624247863" accel="1.0" decel="5.0" sigma="0.0" length="4.5" maxSpeed="9.522156229107305" /><vType id="vType_car_15.957677846495528" accel="1.0" decel="5.0" sigma="0.0" length="4.5" maxSpeed="4.432688290693203" /><vType id="vType_car_4.009971538297027" accel="1.0" decel="5.0" sigma="0.0" length="4.5" maxSpeed="1.1138809828602851" /><vType id="vType_car_19.13054069390626" accel="1.0" decel="5.0" sigma="0.0" length="4.5" maxSpeed="5.314039081640627" /><vType id="vType_car_4.935353664854951" accel="1.0" decel="5.0" sigma="0.0" length="4.5" maxSpeed="1.3709315735708196" /><vType id="vType_car_38.30809244875159" accel="1.0" decel="5.0" sigma="0.0" length="4.5" maxSpeed="10.641136791319886" /><vType id="vType_car_32.11844733526581" accel="1.0" decel="5.0" sigma="0.0" length="4.5" maxSpeed="8.921790926462725" /><vType id="vType_car_4.668144949740241" accel="1.0" decel="5.0" sigma="0.0" length="4.5" maxSpeed="1.2967069304834002" /><vType id="vType_car_31.46642825648266" accel="1.0" decel="5.0" sigma="0.0" length="4.5" maxSpeed="8.740674515689628" /><vType id="vType_car_40.133339156591205" accel="1.0" decel="5.0" sigma="0.0" length="4.5" maxSpeed="11.14814976571978" /><vType id="vType_car_9.256382099426967" accel="1.0" decel="5.0" sigma="0.0" length="4.5" maxSpeed="2.571217249840824" /><vType id="vType_car_26.544517174596937" accel="1.0" decel="5.0" sigma="0.0" length="4.5" maxSpeed="7.373476992943593" /><vType id="vType_car_19.445034377994983" accel="1.0" decel="5.0" sigma="0.0" length="4.5" maxSpeed="5.401398438331939" /><vType id="vType_car_51.240671931451324" accel="1.0" decel="5.0" sigma="0.0" length="4.5" maxSpeed="14.2335199809587" /><vType id="vType_car_3.859145350250586" accel="1.0" decel="5.0" sigma="0.0" length="4.5" maxSpeed="1.0719848195140518" /><vType id="vType_car_50.930390041815635" accel="1.0" decel="5.0" sigma="0.0" length="4.5" maxSpeed="14.147330567171009" /><vType id="vType_car_34.96086028305173" accel="1.0" decel="5.0" sigma="0.0" length="4.5" maxSpeed="9.71135007862548" /><vType id="vType_car_52.252454976500296" accel="1.0" decel="5.0" sigma="0.0" length="4.5" maxSpeed="14.514570826805638" /><vType id="vType_car_42.91452300077945" accel="1.0" decel="5.0" sigma="0.0" length="4.5" maxSpeed="11.920700833549846" /><vType id="vType_car_38.914252559281046" accel="1.0" decel="5.0" sigma="0.0" length="4.5" maxSpeed="10.80951459980029" /><vType id="vType_car_42.84858747961684" accel="1.0" decel="5.0" sigma="0.0" length="4.5" maxSpeed="11.902385411004678" /><vType id="vType_car_6.399698206178284" accel="1.0" decel="5.0" sigma="0.0" length="4.5" maxSpeed="1.7776939461606345" /><vType id="vType_car_31.97761089124476" accel="1.0" decel="5.0" sigma="0.0" length="4.5" maxSpeed="8.882669692012433" /><vType id="vType_car_17.589065706165258" accel="1.0" decel="5.0" sigma="0.0" length="4.5" maxSpeed="4.885851585045905" /><vType id="vType_car_54.429505162618455" accel="1.0" decel="5.0" sigma="0.0" length="4.5" maxSpeed="15.119306989616238" /><vType id="vType_car_32.93458675116794" accel="1.0" decel="5.0" sigma="0.0" length="4.5" maxSpeed="9.148496319768872" /><vType id="vType_car_43.92263028389296" accel="1.0" decel="5.0" sigma="0.0" length="4.5" maxSpeed="12.20073063441471" /><vType id="vType_car_8.05280010274811" accel="1.0" decel="5.0" sigma="0.0" length="4.5" maxSpeed="2.2368889174300306" /><vType id="vType_car_39.293964434514145" accel="1.0" decel="5.0" sigma="0.0" length="4.5" maxSpeed="10.914990120698373" /><vType id="vType_car_13.277533210196948" accel="1.0" decel="5.0" sigma="0.0" length="4.5" maxSpeed="3.6882036694991522" /><vType id="vType_car_18.909671409186302" accel="1.0" decel="5.0" sigma="0.0" length="4.5" maxSpeed="5.25268650255175" /><vType id="vType_car_19.203455162005977" accel="1.0" decel="5.0" sigma="0.0" length="4.5" maxSpeed="5.334293100557216" /><vType id="vType_car_23.422839483373398" accel="1.0" decel="5.0" sigma="0.0" length="4.5" maxSpeed="6.506344300937055" /><vType id="vType_car_14.531701224623953" accel="1.0" decel="5.0" sigma="0.0" length="4.5" maxSpeed="4.036583673506653" /><vType id="vType_car_25.39134643525005" accel="1.0" decel="5.0" sigma="0.0" length="4.5" maxSpeed="7.053151787569458" /><vType id="vType_car_18.1759098686308" accel="1.0" decel="5.0" sigma="0.0" length="4.5" maxSpeed="5.048863852397444" /><vType id="vType_car_9.40310881111497" accel="1.0" decel="5.0" sigma="0.0" length="4.5" maxSpeed="2.6119746697541584" /><vType id="vType_car_6.673647433343645" accel="1.0" decel="5.0" sigma="0.0" length="4.5" maxSpeed="1.853790953706568" /><vType id="vType_car_29.389330347056465" accel="1.0" decel="5.0" sigma="0.0" length="4.5" maxSpeed="8.16370287418235" /><vType id="vType_car_25.727333487787" accel="1.0" decel="5.0" sigma="0.0" length="4.5" maxSpeed="7.146481524385278" /><vType id="vType_car_12.956907721755568" accel="1.0" decel="5.0" sigma="0.0" length="4.5" maxSpeed="3.5991410338209913" /><vType id="vType_car_20.080894700025997" accel="1.0" decel="5.0" sigma="0.0" length="4.5" maxSpeed="5.578026305562777" /><vType id="vType_car_28.379193130562108" accel="1.0" decel="5.0" sigma="0.0" length="4.5" maxSpeed="7.883109202933919" /><vType id="vType_car_18.741581413673774" accel="1.0" decel="5.0" sigma="0.0" length="4.5" maxSpeed="5.205994837131604" /><vType id="vType_car_12.985242568949825" accel="1.0" decel="5.0" sigma="0.0" length="4.5" maxSpeed="3.6070118247082847" /><vType id="vType_car_4.884844592896913" accel="1.0" decel="5.0" sigma="0.0" length="4.5" maxSpeed="1.356901275804698" /><vType id="vType_car_21.156721023505984" accel="1.0" decel="5.0" sigma="0.0" length="4.5" maxSpeed="5.876866950973884" /><vType id="vType_car_8.617485629122866" accel="1.0" decel="5.0" sigma="0.0" length="4.5" maxSpeed="2.393746008089685" /><vType id="vType_car_15.233754303614317" accel="1.0" decel="5.0" sigma="0.0" length="4.5" maxSpeed="4.231598417670644" /><vType id="vType_car_18.38780233735218" accel="1.0" decel="5.0" sigma="0.0" length="4.5" maxSpeed="5.107722871486716" /><vType id="vType_car_27.89556941224461" accel="1.0" decel="5.0" sigma="0.0" length="4.5" maxSpeed="7.748769281179058" /><vType id="vType_car_2.0305742614324664" accel="1.0" decel="5.0" sigma="0.0" length="4.5" maxSpeed="0.5640484059534628" /><vType id="vType_car_13.20556891660567" accel="1.0" decel="5.0" sigma="0.0" length="4.5" maxSpeed="3.668213587946019" /><vType id="vType_car_36.29264365711495" accel="1.0" decel="5.0" sigma="0.0" length="4.5" maxSpeed="10.081289904754152" /><vType id="vType_car_13.87934902932121" accel="1.0" decel="5.0" sigma="0.0" length="4.5" maxSpeed="3.8553747303670027" /><vType id="vType_car_13.987046933462105" accel="1.0" decel="5.0" sigma="0.0" length="4.5" maxSpeed="3.8852908148505847" /><vType id="vType_car_4.4443839029886485" accel="1.0" decel="5.0" sigma="0.0" length="4.5" maxSpeed="1.2345510841635134" /><vType id="vType_car_26.515261703210165" accel="1.0" decel="5.0" sigma="0.0" length="4.5" maxSpeed="7.365350473113934" /><vType id="vType_car_18.976961010221437" accel="1.0" decel="5.0" sigma="0.0" length="4.5" maxSpeed="5.271378058394844" /><vType id="vType_car_17.636930891688944" accel="1.0" decel="5.0" sigma="0.0" length="4.5" maxSpeed="4.899147469913595" /><vType id="vType_car_4.7139218602320545" accel="1.0" decel="5.0" sigma="0.0" length="4.5" maxSpeed="1.3094227389533484" /><vType id="vType_car_29.94559039964858" accel="1.0" decel="5.0" sigma="0.0" length="4.5" maxSpeed="8.318219555457938" /><vType id="vType_car_21.28702919604092" accel="1.0" decel="5.0" sigma="0.0" length="4.5" maxSpeed="5.913063665566922" /><vType id="vType_car_15.744413276537117" accel="1.0" decel="5.0" sigma="0.0" length="4.5" maxSpeed="4.373448132371421" /><vType id="vType_car_4.063449968422052" accel="1.0" decel="5.0" sigma="0.0" length="4.5" maxSpeed="1.1287361023394589" /><vType id="vType_car_10.320952190842153" accel="1.0" decel="5.0" sigma="0.0" length="4.5" maxSpeed="2.8669311641228203" /><vType id="vType_car_16.28792475798613" accel="1.0" decel="5.0" sigma="0.0" length="4.5" maxSpeed="4.524423543885036" /><vType id="vType_car_26.866888085444977" accel="1.0" decel="5.0" sigma="0.0" length="4.5" maxSpeed="7.46302446817916" /><vType id="vType_car_17.832410665179733" accel="1.0" decel="5.0" sigma="0.0" length="4.5" maxSpeed="4.95344740699437" /><vType id="vType_car_22.84905316014132" accel="1.0" decel="5.0" sigma="0.0" length="4.5" maxSpeed="6.3469592111503665" /><vType id="vType_car_18.887941826066225" accel="1.0" decel="5.0" sigma="0.0" length="4.5" maxSpeed="5.246650507240618" /><vType id="vType_car_5.666589476310528" accel="1.0" decel="5.0" sigma="0.0" length="4.5" maxSpeed="1.57405263230848" /><vType id="vType_car_16.682796062949823" accel="1.0" decel="5.0" sigma="0.0" length="4.5" maxSpeed="4.634110017486062" /><vType id="vType_car_24.686403316235484" accel="1.0" decel="5.0" sigma="0.0" length="4.5" maxSpeed="6.857334254509857" /><vType id="vType_car_24.395471981046118" accel="1.0" decel="5.0" sigma="0.0" length="4.5" maxSpeed="6.7765199947350325" /><vType id="vType_car_16.3325790102415" accel="1.0" decel="5.0" sigma="0.0" length="4.5" maxSpeed="4.536827502844861" /><vType id="vType_car_90.8227004843887" accel="1.0" decel="5.0" sigma="0.0" length="4.5" maxSpeed="25.228527912330193" /><vType id="vType_car_15.293038494188362" accel="1.0" decel="5.0" sigma="0.0" length="4.5" maxSpeed="4.248066248385656" /><vType id="vType_car_30.805321629311255" accel="1.0" decel="5.0" sigma="0.0" length="4.5" maxSpeed="8.557033785919792" /><vType id="vType_car_3.501108712305181" accel="1.0" decel="5.0" sigma="0.0" length="4.5" maxSpeed="0.9725301978625502" /><vType id="vType_car_31.598141295645043" accel="1.0" decel="5.0" sigma="0.0" length="4.5" maxSpeed="8.777261471012512" /><vType id="vType_car_15.294668015073187" accel="1.0" decel="5.0" sigma="0.0" length="4.5" maxSpeed="4.248518893075885" /><vType id="vType_car_4.6739804710784645" accel="1.0" decel="5.0" sigma="0.0" length="4.5" maxSpeed="1.2983279086329067" /><vType id="vType_car_23.357376144546503" accel="1.0" decel="5.0" sigma="0.0" length="4.5" maxSpeed="6.488160040151806" /><vType id="vType_car_17.01662113953596" accel="1.0" decel="5.0" sigma="0.0" length="4.5" maxSpeed="4.726839205426655" /><vType id="vType_car_22.63108026807809" accel="1.0" decel="5.0" sigma="0.0" length="4.5" maxSpeed="6.286411185577247" /><vType id="vType_car_4.9058605882248525" accel="1.0" decel="5.0" sigma="0.0" length="4.5" maxSpeed="1.3627390522846812" /><vType id="vType_car_12.081314260682857" accel="1.0" decel="5.0" sigma="0.0" length="4.5" maxSpeed="3.3559206279674605" /><vType id="vType_car_27.926939861315915" accel="1.0" decel="5.0" sigma="0.0" length="4.5" maxSpeed="7.757483294809976" /><vType id="vType_car_2.9893608078763436" accel="1.0" decel="5.0" sigma="0.0" length="4.5" maxSpeed="0.8303780021878732" /><vType id="vType_car_21.421554524941985" accel="1.0" decel="5.0" sigma="0.0" length="4.5" maxSpeed="5.950431812483885" /><vType id="vType_car_24.114217165597015" accel="1.0" decel="5.0" sigma="0.0" length="4.5" maxSpeed="6.698393657110282" /><vType id="vType_car_16.301857472772134" accel="1.0" decel="5.0" sigma="0.0" length="4.5" maxSpeed="4.528293742436704" /><vType id="vType_car_30.19063291026386" accel="1.0" decel="5.0" sigma="0.0" length="4.5" maxSpeed="8.386286919517739" /><vType id="vType_car_30.48131812937351" accel="1.0" decel="5.0" sigma="0.0" length="4.5" maxSpeed="8.467032813714864" /><vType id="vType_car_18.134574038745605" accel="1.0" decel="5.0" sigma="0.0" length="4.5" maxSpeed="5.037381677429335" /><vType id="vType_truck_41.80367861227268" accel="1.0" decel="5.0" sigma="0.0" length="8" maxSpeed="11.612132947853521" /><vType id="vType_car_18.98053361330407" accel="1.0" decel="5.0" sigma="0.0" length="4.5" maxSpeed="5.272370448140019" /><vType id="vType_car_22.70197324274532" accel="1.0" decel="5.0" sigma="0.0" length="4.5" maxSpeed="6.306103678540367" /><vType id="vType_car_3.14810526461696" accel="1.0" decel="5.0" sigma="0.0" length="4.5" maxSpeed="0.8744736846158222" /><vType id="vType_car_4.9810092010342775" accel="1.0" decel="5.0" sigma="0.0" length="4.5" maxSpeed="1.383613666953966" /><vType id="vType_car_19.13783305939204" accel="1.0" decel="5.0" sigma="0.0" length="4.5" maxSpeed="5.316064738720011" /><vType id="vType_car_16.72245195841596" accel="1.0" decel="5.0" sigma="0.0" length="4.5" maxSpeed="4.645125544004433" /><vType id="vType_car_20.81749808532649" accel="1.0" decel="5.0" sigma="0.0" length="4.5" maxSpeed="5.782638357035136" /><vType id="vType_car_14.185830048701916" accel="1.0" decel="5.0" sigma="0.0" length="4.5" maxSpeed="3.9405083468616433" /><vType id="vType_car_17.15754229268488" accel="1.0" decel="5.0" sigma="0.0" length="4.5" maxSpeed="4.765983970190244" /><vType id="vType_car_29.077285837251548" accel="1.0" decel="5.0" sigma="0.0" length="4.5" maxSpeed="8.077023843680985" /><vType id="vType_car_14.41020235204591" accel="1.0" decel="5.0" sigma="0.0" length="4.5" maxSpeed="4.00283398667942" /><vType id="vType_car_3.734514355088539" accel="1.0" decel="5.0" sigma="0.0" length="4.5" maxSpeed="1.0373650986357053" /><vType id="vType_car_25.591599112538518" accel="1.0" decel="5.0" sigma="0.0" length="4.5" maxSpeed="7.108777531260699" /><vType id="vType_car_24.02257317474982" accel="1.0" decel="5.0" sigma="0.0" length="4.5" maxSpeed="6.6729369929860605" /><vType id="vType_car_14.435962325453717" accel="1.0" decel="5.0" sigma="0.0" length="4.5" maxSpeed="4.009989534848255" /><vType id="vType_car_31.23406851409553" accel="1.0" decel="5.0" sigma="0.0" length="4.5" maxSpeed="8.676130142804313" /><vType id="vType_car_8.499682530645401" accel="1.0" decel="5.0" sigma="0.0" length="4.5" maxSpeed="2.3610229251792783" /><vType id="vType_car_20.94522354553114" accel="1.0" decel="5.0" sigma="0.0" length="4.5" maxSpeed="5.8181176515364275" /><vType id="vType_car_3.462915791078656" accel="1.0" decel="5.0" sigma="0.0" length="4.5" maxSpeed="0.9619210530774045" /><vType id="vType_car_12.692831769000637" accel="1.0" decel="5.0" sigma="0.0" length="4.5" maxSpeed="3.525786602500177" /><vType id="vType_truck_24.313343372205075" accel="1.0" decel="5.0" sigma="0.0" length="8" maxSpeed="6.753706492279187" /><vType id="vType_car_29.692595124786035" accel="1.0" decel="5.0" sigma="0.0" length="4.5" maxSpeed="8.247943090218342" /><vType id="vType_car_3.2041870348686206" accel="1.0" decel="5.0" sigma="0.0" length="4.5" maxSpeed="0.8900519541301724" /><vType id="vType_car_17.722053882445568" accel="1.0" decel="5.0" sigma="0.0" length="4.5" maxSpeed="4.922792745123769" /><vType id="vType_truck_9.982744277678963" accel="1.0" decel="5.0" sigma="0.0" length="8" maxSpeed="2.7729845215774898" /><vType id="vType_car_30.14520567370773" accel="1.0" decel="5.0" sigma="0.0" length="4.5" maxSpeed="8.37366824269659" /><vType id="vType_car_19.375064400576345" accel="1.0" decel="5.0" sigma="0.0" length="4.5" maxSpeed="5.381962333493429" /><vType id="vType_car_7.043487811164026" accel="1.0" decel="5.0" sigma="0.0" length="4.5" maxSpeed="1.956524391990007" /><vType id="vType_car_28.404755874212913" accel="1.0" decel="5.0" sigma="0.0" length="4.5" maxSpeed="7.890209965059142" /><vType id="vType_car_3.777726317540352" accel="1.0" decel="5.0" sigma="0.0" length="4.5" maxSpeed="1.0493684215389867" /><vType id="vType_car_12.233358114622382" accel="1.0" decel="5.0" sigma="0.0" length="4.5" maxSpeed="3.3981550318395506" /><vType id="vType_car_4.521719436924201" accel="1.0" decel="5.0" sigma="0.0" length="4.5" maxSpeed="1.256033176923389" /><vType id="vType_car_13.059086614103473" accel="1.0" decel="5.0" sigma="0.0" length="4.5" maxSpeed="3.6275240594731866" /><vType id="vType_car_22.320072902371372" accel="1.0" decel="5.0" sigma="0.0" length="4.5" maxSpeed="6.2000202506587145" /><vType id="vType_car_23.41782161993656" accel="1.0" decel="5.0" sigma="0.0" length="4.5" maxSpeed="6.504950449982378" /><vType id="vType_car_21.423176233475214" accel="1.0" decel="5.0" sigma="0.0" length="4.5" maxSpeed="5.950882287076448" /><vType id="vType_car_37.2803225226912" accel="1.0" decel="5.0" sigma="0.0" length="4.5" maxSpeed="10.355645145192" /><vType id="vType_car_4.000637184436539" accel="1.0" decel="5.0" sigma="0.0" length="4.5" maxSpeed="1.1112881067879274" /><vType id="vType_car_16.99021134364421" accel="1.0" decel="5.0" sigma="0.0" length="4.5" maxSpeed="4.7195031510122805" /><vType id="vType_car_4.2897452324783885" accel="1.0" decel="5.0" sigma="0.0" length="4.5" maxSpeed="1.1915958979106633" /><vType id="vType_car_8.258991745560786" accel="1.0" decel="5.0" sigma="0.0" length="4.5" maxSpeed="2.294164373766885" /><vType id="vType_car_4.409497590699272" accel="1.0" decel="5.0" sigma="0.0" length="4.5" maxSpeed="1.2248604418609088" /><vType id="vType_car_36.8116992277004" accel="1.0" decel="5.0" sigma="0.0" length="4.5" maxSpeed="10.225472007694556" /><vType id="vType_car_8.11755364549127" accel="1.0" decel="5.0" sigma="0.0" length="4.5" maxSpeed="2.2548760126364638" /><vType id="vType_car_37.99677387444208" accel="1.0" decel="5.0" sigma="0.0" length="4.5" maxSpeed="10.554659409567243" /><vType id="vType_car_56.71877532841841" accel="1.0" decel="5.0" sigma="0.0" length="4.5" maxSpeed="15.755215369005114" /><vType id="vType_car_64.33476938841603" accel="1.0" decel="5.0" sigma="0.0" length="4.5" maxSpeed="17.870769274560008" /><vType id="vType_car_23.159085552499374" accel="1.0" decel="5.0" sigma="0.0" length="4.5" maxSpeed="6.433079320138715" /><route id="route_north_to_east" edges="north_to_center center_to_east" /><route id="route_north_to_south" edges="north_to_center center_to_south" /><route id="route_north_to_west" edges="north_to_center center_to_west" /><route id="route_east_to_west" edges="east_to_center center_to_west" /><route id="route_east_to_south" edges="east_to_center center_to_south" /><route id="route_east_to_north" edges="east_to_center center_to_north" /><route id="route_south_to_west" edges="south_to_center center_to_west" /><route id="route_south_to_north" edges="south_to_center center_to_north" /><route id="route_south_to_east" edges="south_to_center center_to_east" /><route id="route_west_to_south" edges="west_to_center center_to_south" /><route i