<?xml version='1.0' encoding='utf-8'?>
<routes><vType id="vType_car_11.62957543084934" accel="1.0" decel="5.0" sigma="0.0" length="4.5" maxSpeed="3.230437619680372" /><vType id="vType_car_10.783204082762456" accel="1.0" decel="5.0" sigma="0.0" length="4.5" maxSpeed="2.9953344674340157" /><vType id="vType_car_9.49054047780389" accel="1.0" decel="5.0" sigma="0.0" length="4.5" maxSpeed="2.6362612438344137" /><vType id="vType_car_12.437283903624563" accel="1.0" decel="5.0" sigma="0.0" length="4.5" maxSpeed="3.454801084340156" /><vType id="vType_car_37.84540418951968" accel="1.0" decel="5.0" sigma="0.0" length="4.5" maxSpeed="10.512612274866576" /><vType id="vType_car_4.038876415329575" accel="1.0" decel="5.0" sigma="0.0" length="4.5" maxSpeed="1.1219101153693265" /><vType id="vType_car_44.83465823287366" accel="1.0" decel="5.0" sigma="0.0" length="4.5" maxSpeed="12.454071731353793" /><vType id="vType_car_21.625757852166604" accel="1.0" decel="5.0" sigma="0.0" length="4.5" maxSpeed="6.007154958935168" /><vType id="vType_car_16.647634162792208" accel="1.0" decel="5.0" sigma="0.0" length="4.5" maxSpeed="4.624342822997836" /><vType id="vType_car_22.120181344261233" accel="1.0" decel="5.0" sigma="0.0" length="4.5" maxSpeed="6.144494817850342" /><vType id="vType_car_18.05663671900572" accel="1.0" decel="5.0" sigma="0.0" length="4.5" maxSpeed="5.0157324219460335" /><vType id="vType_car_25.610573681022018" accel="1.0" decel="5.0" sigma="0.0" length="4.5" maxSpeed="7.114048244728338" /><vType id="vType_car_17.686799833948598" accel="1.0" decel="5.0" sigma="0.0" length="4.5" maxSpeed="4.9129999538746105" /><vType id="vType_car_26.810562909409963" accel="1.0" decel="5.0" sigma="0.0" length="4.5" maxSpeed="7.447378585947212" /><vType id="vType_car_6.122342820636213" accel="1.0" decel="5.0" sigma="0.0" length="4.5" maxSpeed="1.700650783510059" /><vType id="vType_car_21.920363706432127" accel="1.0" decel="5.0" sigma="0.0" length="4.5" maxSpeed="6.088989918453368" /><vType id="vType_car_19.27233944014357" accel="1.0" decel="5.0" sigma="0.0" length="4.5" maxSpeed="5.353427622262102" /><vType id="vType_car_31.53055773542687" accel="1.0" decel="5.0" sigma="0.0" length="4.5" maxSpeed="8.758488259840798" /><vType id="vType_car_17.642232441728716" accel="1.0" decel="5.0" sigma="0.0" length="4.5" maxSpeed="4.900620122702421" /><vType id="vType_car_13.341664082595006" accel="1.0" decel="5.0" sigma="0.0" length="4.5" maxSpeed="3.706017800720835" /><vType id="vType_car_26.498359062554666" accel="1.0" decel="5.0" sigma="0.0" length="4.5" maxSpeed="7.360655295154074" /><vType id="vType_car_16.270311214739706" accel="1.0" decel="5.0" sigma="0.0" length="4.5" maxSpeed="4.519530892983251" /><vType id="vType_car_18.94094549796478" accel="1.0" decel="5.0" sigma="0.0" length="4.5" maxSpeed="5.261373749434661" /><vType id="vType_car_16.213997166843647" accel="1.0" decel="5.0" sigma="0.0" length="4.5" maxSpeed="4.503888101901013" /><vType id="vType_car_24.40198850192946" accel="1.0" decel="5.0" sigma="0.0" length="4.5" maxSpeed="6.77833013942485" /><vType id="vType_car_15.03921963900615" accel="1.0" decel="5.0" sigma="0.0" length="4.5" maxSpeed="4.177561010835042" /><vType id="vType_car_28.50242391842349" accel="1.0" decel="5.0" sigma="0.0" length="4.5" maxSpeed="7.917339977339858" /><vType id="vType_car_14.156404024468095" accel="1.0" decel="5.0" sigma="0.0" length="4.5" maxSpeed="3.9323344512411373" /><vType id="vType_car_7.507046767457917" accel="1.0" decel="5.0" sigma="0.0" length="4.5" maxSpeed="2.08529076873831" /><vType id="vType_car_27.83298409736154" accel="1.0" decel="5.0" sigma="0.0" length="4.5" maxSpeed="7.731384471489316" /><vType id="vType_car_20.441592116429725" accel="1.0" decel="5.0" sigma="0.0" length="4.5" maxSpeed="5.67822003234159" /><vType id="vType_car_18.270242456677884" accel="1.0" decel="5.0" sigma="0.0" length="4.5" maxSpeed="5.07506734907719" /><vType id="vType_car_4.8727885147073815" accel="1.0" decel="5.0" sigma="0.0" length="4.5" maxSpeed="1.353552365196495" /><vType id="vType_car_16.847211800035726" accel="1.0" decel="5.0" sigma="0.0" length="4.5" maxSpeed="4.6797810555654795" /><vType id="vType_car_19.167889545928553" accel="1.0" decel="5.0" sigma="0.0" length="4.5" maxSpeed="5.324413762757931" /><vType id="vType_car_26.775738624636823" accel="1.0" decel="5.0" sigma="0.0" length="4.5" maxSpeed="7.437705173510229" /><vType id="vType_car_11.22789028141808" accel="1.0" decel="5.0" sigma="0.0" length="4.5" maxSpeed="3.1188584115050224" /><vType id="vType_car_19.14837649406247" accel="1.0" decel="5.0" sigma="0.0" length="4.5" maxSpeed="5.3189934705729085" /><vType id="vType_car_18.2684422565638" accel="1.0" decel="5.0" sigma="0.0" length="4.5" maxSpeed="5.074567293489944" /><vType id="vType_car_19.98520616526053" accel="1.0" decel="5.0" sigma="0.0" length="4.5" maxSpeed="5.551446157016813" /><vType id="vType_car_17.272189298084648" accel="1.0" decel="5.0" sigma="0.0" length="4.5" maxSpeed="4.797830360579069" /><vType id="vType_car_26.67696043776457" accel="1.0" decel="5.0" sigma="0.0" length="4.5" maxSpeed="7.410266788267936" /><vType id="vType_car_16.854384786294926" accel="1.0" decel="5.0" sigma="0.0" length="4.5" maxSpeed="4.681773551748591" /><vType id="vType_car_31.252910651455657" accel="1.0" decel="5.0" sigma="0.0" length="4.5" maxSpeed="8.681364069848794" /><vType id="vType_car_21.95579913305929" accel="1.0" decel="5.0" sigma="0.0" length="4.5" maxSpeed="6.098833092516469" /><vType id="vType_car_9.866247638451025" accel="1.0" decel="5.0" sigma="0.0" length="4.5" maxSpeed="2.7406243440141735" /><vType id="vType_car_10.31261102304146" accel="1.0" decel="5.0" sigma="0.0" length="4.5" maxSpeed="2.8646141730670722" /><vType id="vType_car_18.525727655386333" accel="1.0" decel="5.0" sigma="0.0" length="4.5" maxSpeed="5.146035459829537" /><vType id="vType_car_15.423272100085013" accel="1.0" decel="5.0" sigma="0.0" length="4.5" maxSpeed="4.284242250023615" /><vType id="vType_car_27.90182886653291" accel="1.0" decel="5.0" sigma="0.0" length="4.5" maxSpeed="7.750508018481364" /><vType id="vType_car_19.922354316260787" accel="1.0" decel="5.0" sigma="0.0" length="4.5" maxSpeed="5.53398731007244" /><vType id="vType_car_26.882213071492483" accel="1.0" decel="5.0" sigma="0.0" length="4.5" maxSpeed="7.467281408747912" /><vType id="vType_car_3.240194965012843" accel="1.0" decel="5.0" sigma="0.0" length="4.5" maxSpeed="0.9000541569480119" /><vType id="vType_car_15.408166752226192" accel="1.0" decel="5.0" sigma="0.0" length="4.5" maxSpeed="4.280046320062831" /><vType id="vType_car_17.54382760656768" accel="1.0" decel="5.0" sigma="0.0" length="4.5" maxSpeed="4.873285446268801" /><vType id="vType_car_15.719697787820705" accel="1.0" decel="5.0" sigma="0.0" length="4.5" maxSpeed="4.366582718839084" /><vType id="vType_car_21.588030991704606" accel="1.0" decel="5.0" sigma="0.0" length="4.5" maxSpeed="5.9966752754735015" /><vType id="vType_car_16.34125623896706" accel="1.0" decel="5.0" sigma="0.0" length="4.5" maxSpeed="4.539237844157516" /><vType id="vType_car_3.7129107809181137" accel="1.0" decel="5.0" sigma="0.0" length="4.5" maxSpeed="1.0313641058105871" /><vType id="vType_car_7.274097047922036" accel="1.0" decel="5.0" sigma="0.0" length="4.5" maxSpeed="2.020582513311677" /><vType id="vType_car_25.918846872702648" accel="1.0" decel="5.0" sigma="0.0" length="4.5" maxSpeed="7.199679686861846" /><vType id="vType_car_22.48502916329948" accel="1.0" decel="5.0" sigma="0.0" length="4.5" maxSpeed="6.245841434249855" /><vType id="vType_car_12.089408827395292" accel="1.0" decel="5.0" sigma="0.0" length="4.5" maxSpeed="3.3581691187209146" /><vType id="vType_car_8.626815692619184" accel="1.0" decel="5.0" sigma="0.0" length="4.5" maxSpeed="2.396337692394218" /><vType id="vType_car_3.6186260002921244" accel="1.0" decel="5.0" sigma="0.0" length="4.5" maxSpeed="1.0051738889700346" /><vType id="vType_car_20.084783599211246" accel="1.0" decel="5.0" sigma="0.0" length="4.5" maxSpeed="5.579106555336457" /><vType id="vType_car_1.0176212939427305" accel="1.0" decel="5.0" sigma="0.0" length="4.5" maxSpeed="0.2826725816507585" /><vType id="vType_car_29.006644083358214" accel="1.0" decel="5.0" sigma="0.0" length="4.5" maxSpeed="8.05740113426617" /><vType id="vType_car_25.626482617822518" accel="1.0" decel="5.0" sigma="0.0" length="4.5" maxSpeed="7.118467393839588" /><vType id="vType_car_15.96722828109317" accel="1.0" decel="5.0" sigma="0.0" length="4.5" maxSpeed="4.435341189192547" /><vType id="vType_car_26.046111560154376" accel="1.0" decel="5.0" sigma="0.0" length="4.5" maxSpeed="7.235030988931771" /><vType id="vType_car_2.833294738155264" accel="1.0" decel="5.0" sigma="0.0" length="4.5" maxSpeed="0.78702631615424" /><vType id="vType_car_25.98007334518754" accel="1.0" decel="5.0" sigma="0.0" length="4.5" maxSpeed="7.216687040329872" /><vType id="vType_car_4.021074221063538" accel="1.0" decel="5.0" sigma="0.0" length="4.5" maxSpeed="1.1169650614065383" /><vType id="vType_car_18.88863158770176" accel="1.0" decel="5.0" sigma="0.0" length="4.5" maxSpeed="5.246842107694933" /><vType id="vType_car_16.87254940603956" accel="1.0" decel="5.0" sigma="0.0" length="4.5" maxSpeed="4.686819279455434" /><vType id="vType_car_4.5097255712915585" accel="1.0" decel="5.0" sigma="0.0" length="4.5" maxSpeed="1.2527015475809884" /><vType id="vType_car_11.961679286669748" accel="1.0" decel="5.0" sigma="0.0" length="4.5" maxSpeed="3.3226886907415967" /><vType id="vType_car_15.032070935777655" accel="1.0" decel="5.0" sigma="0.0" length="4.5" maxSpeed="4.175575259938237" /><vType id="vType_car_17.375267534526298" accel="1.0" decel="5.0" sigma="0.0" length="4.5" maxSpeed="4.8264632040350826" /><vType id="vType_car_5.336304318672556" accel="1.0" decel="5.0" sigma="0.0" length="4.5" maxSpeed="1.4823067551868212" /><vType id="vType_car_10.47709547582756" accel="1.0" decel="5.0" sigma="0.0" length="4.5" maxSpeed="2.910304298840989" /><vType id="vType_car_25.164839731835556" accel="1.0" decel="5.0" sigma="0.0" length="4.5" maxSpeed="6.99023325884321" /><vType id="vType_car_7.147847661115325" accel="1.0" decel="5.0" sigma="0.0" length="4.5" maxSpeed="1.9855132391987014" /><vType id="vType_car_34.69816961145401" accel="1.0" decel="5.0" sigma="0.0" length="4.5" maxSpeed="9.638380447626114" /><vType id="vType_car_21.45643381679818" accel="1.0" decel="5.0" sigma="0.0" length="4.5" maxSpeed="5.960120504666161" /><vType id="vType_car_7.641808230867028" accel="1.0" decel="5.0" sigma="0.0" length="4.5" maxSpeed="2.122724508574174" /><vType id="vType_car_29.428314535060878" accel="1.0" decel="5.0" sigma="0.0" length="4.5" maxSpeed="8.174531815294689" /><vType id="vType_car_22.79692548944009" accel="1.0" decel="5.0" sigma="0.0" length="4.5" maxSpeed="6.332479302622247" /><vType id="vType_car_34.13981935802238" accel="1.0" decel="5.0" sigma="0.0" length="4.5" maxSpeed="9.483283155006216" /><vType id="vType_car_3.777726317540352" accel="1.0" decel="5.0" sigma="0.0" length="4.5" maxSpeed="1.0493684215389867" /><vType id="vType_car_62.581296692603516" accel="1.0" decel="5.0" sigma="0.0" length="4.5" maxSpeed="17.3836935257232" /><vType id="vType_car_7.7593278436536695" accel="1.0" decel="5.0" sigma="0.0" length="4.5" maxSpeed="2.1553688454593525" /><vType id="vType_car_32.395101498807925" accel="1.0" decel="5.0" sigma="0.0" length="4.5" maxSpeed="8.998639305224424" /><vType id="vType_truck_5.278068981255162" accel="1.0" decel="5.0" sigma="0.0" length="8" maxSpeed="1.4661302725708782" /><vType id="vType_car_30.776307879360534" accel="1.0" decel="5.0" sigma="0.0" length="4.5" maxSpeed="8.548974410933482" /><vType id="vType_car_17.73553395766401" accel="1.0" decel="5.0" sigma="0.0" length="4.5" maxSpeed="4.926537210462225" /><vType id="vType_car_39.8374717689117" accel="1.0" decel="5.0" sigma="0.0" length="4.5" maxSpeed="11.065964380253249" /><vType id="vType_car_9.99607463046285" accel="1.0" decel="5.0" sigma="0.0" length="4.5" maxSpeed="2.7766873973507917" /><vType id="vType_car_9.524203217341688" accel="1.0" decel="5.0" sigma="0.0" length="4.5" maxSpeed="2.6456120048171354" /><vType id="vType_car_17.817365743645148" accel="1.0" decel="5.0" sigma="0.0" length="4.5" maxSpeed="4.949268262123652" /><vType id="vType_car_16.06731106889141" accel="1.0" decel="5.0" sigma="0.0" length="4.5" maxSpeed="4.463141963580947" /><vType id="vType_car_20.825939904134856" accel="1.0" decel="5.0" sigma="0.0" length="4.5" maxSpeed="5.7849833067041265" /><vType id="vType_car_7.117875637066315" accel="1.0" decel="5.0" sigma="0.0" length="4.5" maxSpeed="1.9771876769628651" /><vType id="vType_car_14.437755058175732" accel="1.0" decel="5.0" sigma="0.0" length="4.5" maxSpeed="4.010487516159926" /><vType id="vType_car_26.81093417072274" accel="1.0" decel="5.0" sigma="0.0" length="4.5" maxSpeed="7.447481714089649" /><vType id="vType_car_20.228875660185782" accel="1.0" decel="5.0" sigma="0.0" length="4.5" maxSpeed="5.619132127829384" /><vType id="vType_car_17.35553017546469" accel="1.0" decel="5.0" sigma="0.0" length="4.5" maxSpeed="4.820980604295747" /><vType id="vType_car_26.562340060924534" accel="1.0" decel="5.0" sigma="0.0" length="4.5" maxSpeed="7.378427794701259" /><vType id="vType_car_11.177996367773881" accel="1.0" decel="5.0" sigma="0.0" length="4.5" maxSpeed="3.1049989910483" /><vType id="vType_car_30.486839987243023" accel="1.0" decel="5.0" sigma="0.0" length="4.5" maxSpeed="8.468566663123061" /><vType id="vType_car_21.46799090435543" accel="1.0" decel="5.0" sigma="0.0" length="4.5" maxSpeed="5.963330806765397" /><vType id="vType_car_24.11665893638742" accel="1.0" decel="5.0" sigma="0.0" length="4.5" maxSpeed="6.699071926774283" /><vType id="vType_car_18.22847528320646" accel="1.0" decel="5.0" sigma="0.0" length="4.5" maxSpeed="5.063465356446239" /><vType id="vType_car_14.970312156970776" accel="1.0" decel="5.0" sigma="0.0" length="4.5" maxSpeed="4.158420043602993" /><vType id="vType_car_17.44791689284912" accel="1.0" decel="5.0" sigma="0.0" length="4.5" maxSpeed="4.846643581346977" /><vType id="vType_car_25.885023203403914" accel="1.0" decel="5.0" sigma="0.0" length="4.5" maxSpeed="7.190284223167754" /><vType id="vType_car_17.446904930923743" accel="1.0" decel="5.0" sigma="0.0" length="4.5" maxSpeed="4.846362480812151" /><vType id="vType_car_19.924991611183266" accel="1.0" decel="5.0" sigma="0.0" length="4.5" maxSpeed="5.534719891995351" /><vType id="vType_car_10.8208371223584" accel="1.0" decel="5.0" sigma="0.0" length="4.5" maxSpeed="3.0057880895439997" /><vType id="vType_car_18.507089928395754" accel="1.0" decel="5.0" sigma="0.0" length="4.5" maxSpeed="5.140858313443265" /><vType id="vType_car_17.715410268916052" accel="1.0" decel="5.0" sigma="0.0" length="4.5" maxSpeed="4.920947296921126" /><vType id="vType_car_17.352868558884964" accel="1.0" decel="5.0" sigma="0.0" length="4.5" maxSpeed="4.820241266356934" /><vType id="vType_car_7.486605783971841" accel="1.0" decel="5.0" sigma="0.0" length="4.5" maxSpeed="2.079612717769956" /><vType id="vType_car_30.587550340876906" accel="1.0" decel="5.0" sigma="0.0" length="4.5" maxSpeed="8.496541761354695" /><vType id="vType_car_15.025418953295151" accel="1.0" decel="5.0" sigma="0.0" length="4.5" maxSpeed="4.173727487026431" /><vType id="vType_car_26.337748396191348" accel="1.0" decel="5.0" sigma="0.0" length="4.5" maxSpeed="7.316041221164263" /><vType id="vType_car_19.079262948031694" accel="1.0" decel="5.0" sigma="0.0" length="4.5" maxSpeed="5.299795263342137" /><vType id="vType_car_17.279098829768095" accel="1.0" decel="5.0" sigma="0.0" length="4.5" maxSpeed="4.799749674935582" /><vType id="vType_car_14.926795871503087" accel="1.0" decel="5.0" sigma="0.0" length="4.5" maxSpeed="4.146332186528635" /><vType id="vType_car_16.465792283000987" accel="1.0" decel="5.0" sigma="0.0" length="4.5" maxSpeed="4.573831189722497" /><vType id="vType_car_28.666793017242988" accel="1.0" decel="5.0" sigma="0.0" length="4.5" maxSpeed="7.962998060345274" /><vType id="vType_car_15.912240642864132" accel="1.0" decel="5.0" sigma="0.0" length="4.5" maxSpeed="4.4200668452400365" /><vType id="vType_car_18.48994991574545" accel="1.0" decel="5.0" sigma="0.0" length="4.5" maxSpeed="5.13609719881818" /><vType id="vType_car_17.581583644644237" accel="1.0" decel="5.0" sigma="0.0" length="4.5" maxSpeed="4.883773234623399" /><vType id="vType_car_22.497073199462513" accel="1.0" decel="5.0" sigma="0.0" length="4.5" maxSpeed="6.249186999850698" /><vType id="vType_car_14.6870322253538" accel="1.0" decel="5.0" sigma="0.0" length="4.5" maxSpeed="4.079731173709389" /><vType id="vType_car_9.970082097075087" accel="1.0" decel="5.0" sigma="0.0" length="4.5" maxSpeed="2.769467249187524" /><vType id="vType_car_15.589874891236306" accel="1.0" decel="5.0" sigma="0.0" length="4.5" maxSpeed="4.330520803121196" /><vType id="vType_car_26.63647708170027" accel="1.0" decel="5.0" sigma="0.0" length="4.5" maxSpeed="7.3990214115834085" /><vType id="vType_car_14.570889770752615" accel="1.0" decel="5.0" sigma="0.0" length="4.5" maxSpeed="4.047469380764615" /><vType id="vType_car_11.207104557889576" accel="1.0" decel="5.0" sigma="0.0" length="4.5" maxSpeed="3.113084599413771" /><vType id="vType_car_23.022241290251856" accel="1.0" decel="5.0" sigma="0.0" length="4.5" maxSpeed="6.3950670250699595" /><vType id="vType_car_10.812055942370025" accel="1.0" decel="5.0" sigma="0.0" length="4.5" maxSpeed="3.0033488728805624" /><vType id="vType_car_18.903889544217563" accel="1.0" decel="5.0" sigma="0.0" length="4.5" maxSpeed="5.251080428949323" /><vType id="vType_car_21.639759783804756" accel="1.0" decel="5.0" sigma="0.0" length="4.5" maxSpeed="6.0110443843902095" /><vType id="vType_car_16.322460314595343" accel="1.0" decel="5.0" sigma="0.0" length="4.5" maxSpeed="4.534016754054262" /><vType id="vType_car_4.503721950967414" accel="1.0" decel="5.0" sigma="0.0" length="4.5" maxSpeed="1.251033875268726" /><vType id="vType_car_18.611960231946135" accel="1.0" decel="5.0" sigma="0.0" length="4.5" maxSpeed="5.169988953318371" /><vType id="vType_car_5.233642109755036" accel="1.0" decel="5.0" sigma="0.0" length="4.5" maxSpeed="1.4537894749319544" /><vType id="vType_car_18.839699512814583" accel="1.0" decel="5.0" sigma="0.0" length="4.5" maxSpeed="5.233249864670717" /><vType id="vType_car_6.662536651820673" accel="1.0" decel="5.0" sigma="0.0" length="4.5" maxSpeed="1.8507046255057424" /><vType id="vType_car_28.336113789908474" accel="1.0" decel="5.0" sigma="0.0" length="4.5" maxSpeed="7.87114271941902" /><vType id="vType_car_5.971947896634297" accel="1.0" decel="5.0" sigma="0.0" length="4.5" maxSpeed="1.658874415731749" /><vType id="vType_car_19.69481073051272" accel="1.0" decel="5.0" sigma="0.0" length="4.5" maxSpeed="5.4707807584757555" /><vType id="vType_car_12.833607158403357" accel="1.0" decel="5.0" sigma="0.0" length="4.5" maxSpeed="3.564890877334266" /><vType id="vType_car_16.853550917750802" accel="1.0" decel="5.0" sigma="0.0" length="4.5" maxSpeed="4.681541921597445" /><vType id="vType_car_23.563548417722075" accel="1.0" decel="5.0" sigma="0.0" length="4.5" maxSpeed="6.545430116033909" /><vType id="vType_car_29.02102807766741" accel="1.0" decel="5.0" sigma="0.0" length="4.5" maxSpeed="8.061396688240947" /><vType id="vType_car_15.835767484897584" accel="1.0" decel="5.0" sigma="0.0" length="4.5" maxSpeed="4.39882430136044" /><vType id="vType_car_12.705202033536683" accel="1.0" decel="5.0" sigma="0.0" length="4.5" maxSpeed="3.5292227870935227" /><vType id="vType_car_22.283140604808896" accel="1.0" decel="5.0" sigma="0.0" length="4.5" maxSpeed="6.189761279113582" /><vType id="vType_car_17.368766119294055" accel="1.0" decel="5.0" sigma="0.0" length="4.5" maxSpeed="4.824657255359459" /><vType id="vType_car_3.2134592852025485" accel="1.0" decel="5.0" sigma="0.0" length="4.5" maxSpeed="0.8926275792229301" /><vType id="vType_car_27.5789477910493" accel="1.0" decel="5.0" sigma="0.0" length="4.5" maxSpeed="7.6608188308470275" /><vType id="vType_car_11.981182186918026" accel="1.0" decel="5.0" sigma="0.0" length="4.5" maxSpeed="3.328106163032785" /><vType id="vType_car_17.97570923335215" accel="1.0" decel="5.0" sigma="0.0" length="4.5" maxSpeed="4.993252564820041" /><vType id="vType_car_4.8107798821074255" accel="1.0" decel="5.0" sigma="0.0" length="4.5" maxSpeed="1.3363277450298403" /><vType id="vType_car_5.847766944252888" accel="1.0" decel="5.0" sigma="0.0" length="4.5" maxSpeed="1.6243797067369135" /><vType id="vType_car_27.45228273603772" accel="1.0" decel="5.0" sigma="0.0" length="4.5" maxSpeed="7.625634093343811" /><vType id="vType_car_7.113799994647359" accel="1.0" decel="5.0" sigma="0.0" length="4.5" maxSpeed="1.9760555540687108" /><vType id="vType_car_28.4595284733951" accel="1.0" decel="5.0" sigma="0.0" length="4.5" maxSpeed="7.9054245759430835" /><vType id="vType_car_43.47725116891195" accel="1.0" decel="5.0" sigma="0.0" length="4.5" maxSpeed="12.077014213586653" /><vType id="vType_car_21.47217129681757" accel="1.0" decel="5.0" sigma="0.0" length="4.5" maxSpeed="5.96449202689377" /><vType id="vType_car_21.602089375507212" accel="1.0" decel="5.0" sigma="0.0" length="4.5" maxSpeed="6.000580382085337" /><vType id="vType_car_19.525114976011295" accel="1.0" decel="5.0" sigma="0.0" length="4.5" maxSpeed="5.423643048892027" /><vType id="vType_car_11.811641979308764" accel="1.0" decel="5.0" sigma="0.0" length="4.5" maxSpeed="3.281011660919101" /><vType id="vType_car_17.8659718973764" accel="1.0" decel="5.0" sigma="0.0" length="4.5" maxSpeed="4.962769971493445" /><vType id="vType_car_30.077596334551956" accel="1.0" decel="5.0" sigma="0.0" length="4.5" maxSpeed="8.354887870708877" /><vType id="vType_car_17.76445727278023" accel="1.0" decel="5.0" sigma="0.0" length="4.5" maxSpeed="4.934571464661175" /><vType id="vType_car_33.59662526413428" accel="1.0" decel="5.0" sigma="0.0" length="4.5" maxSpeed="9.332395906703967" /><vType id="vType_car_24.482062422929012" accel="1.0" decel="5.0" sigma="0.0" length="4.5" maxSpeed="6.800572895258059" /><vType id="vType_car_30.00220468459029" accel="1.0" decel="5.0" sigma="0.0" length="4.5" maxSpeed="8.333945745719525" /><vType id="vType_car_4.591507341968297" accel="1.0" decel="5.0" sigma="0.0" length="4.5" maxSpeed="1.2754187061023048" /><vType id="vType_car_16.759049534820647" accel="1.0" decel="5.0" sigma="0.0" length="4.5" maxSpeed="4.6552915374501795" /><vType id="vType_car_2.728357896001366" accel="1.0" decel="5.0" sigma="0.0" length="4.5" maxSpeed="0.7578771933337127" /><vType id="vType_car_16.336385907536087" accel="1.0" decel="5.0" sigma="0.0" length="4.5" maxSpeed="4.537884974315579" /><vType id="vType_car_3.858632167410166" accel="1.0" decel="5.0" sigma="0.0" length="4.5" maxSpeed="1.071842268725046" /><vType id="vType_car_2.5184842116935684" accel="1.0" decel="5.0" sigma="0.0" length="4.5" maxSpeed="0.6995789476926578" /><vType id="vType_car_38.843027571587434" accel="1.0" decel="5.0" sigma="0.0" length="4.5" maxSpeed="10.789729880996509" /><vType id="vType_car_19.143750337012168" accel="1.0" decel="5.0" sigma="0.0" length="4.5" maxSpeed="5.317708426947824" /><vType id="vType_car_3.460599001916282" accel="1.0" decel="5.0" sigma="0.0" length="4.5" maxSpeed="0.9612775005323005" /><vType id="vType_car_6.059295337676377" accel="1.0" decel="5.0" sigma="0.0" length="4.5" maxSpeed="1.6831375937989936" /><vType id="vType_car_8.11192650852649" accel="1.0" decel="5.0" sigma="0.0" length="4.5" maxSpeed="2.253312919035136" /><vType id="vType_car_2.4866115166963962" accel="1.0" decel="5.0" sigma="0.0" length="4.5" maxSpeed="0.6907254213045545" /><vType id="vType_car_15.631689213302714" accel="1.0" decel="5.0" sigma="0.0" length="4.5" maxSpeed="4.342135892584087" /><vType id="vType_car_4.72215789692544" accel="1.0" decel="5.0" sigma="0.0" length="4.5" maxSpeed="1.3117105269237332" /><vType id="vType_car_18.170555797207587" accel="1.0" decel="5.0" sigma="0.0" length="4.5" maxSpeed="5.047376610335441" /><vType id="vType_car_19.527528079267263" accel="1.0" decel="5.0" sigma="0.0" length="4.5" maxSpeed="5.424313355352018" /><vType id="vType_car_10.97401158806943" accel="1.0" decel="5.0" sigma="0.0" length="4.5" maxSpeed="3.0483365522415085" /><vType id="vType_car_9.522927480574095" accel="1.0" decel="5.0" sigma="0.0" length="4.5" maxSpeed="2.6452576334928044" /><vType id="vType_car_3.0386324164526988" accel="1.0" decel="5.0" sigma="0.0" length="4.5" maxSpeed="0.8440645601257496" /><vType id="vType_car_20.76556841493863" accel="1.0" decel="5.0" sigma="0.0" length="4.5" maxSpeed="5.768213448594064" /><vType id="vType_car_5.15072588607205" accel="1.0" decel="5.0" sigma="0.0" length="4.5" maxSpeed="1.4307571905755694" /><vType id="vType_car_18.51487719404833" accel="1.0" decel="5.0" sigma="0.0" length="4.5" maxSpeed="5.143021442791203" /><vType id="vType_car_5.558563581940131" accel="1.0" decel="5.0" sigma="0.0" length="4.5" maxSpeed="1.5440454394278142" /><vType id="vType_car_43.02894305453829" accel="1.0" decel="5.0" sigma="0.0" length="4.5" maxSpeed="11.95248418181619" /><vType id="vType_car_30.91877845341266" accel="1.0" decel="5.0" sigma="0.0" length="4.5" maxSpeed="8.588549570392406" /><vType id="vType_car_3.4624280459918393" accel="1.0" decel="5.0" sigma="0.0" length="4.5" maxSpeed="0.9617855683310664" /><vType id="vType_car_3.435672428230265" accel="1.0" decel="5.0" sigma="0.0" length="4.5" maxSpeed="0.9543534522861846" /><vType id="vType_car_0.7679320769463804" accel="1.0" decel="5.0" sigma="0.0" length="4.5" maxSpeed="0.213314465818439" /><vType id="vType_car_4.297252317917753" accel="1.0" decel="5.0" sigma="0.0" length="4.5" maxSpeed="1.193681199421598" /><vType id="vType_car_58.95685434206897" accel="1.0" decel="5.0" sigma="0.0" length="4.5" maxSpeed="16.376903983908047" /><vType id="vType_car_38.39198192119999" accel="1.0" decel="5.0" sigma="0.0" length="4.5" maxSpeed="10.664439422555553" /><vType id="vType_car_32.25662235446535" accel="1.0" decel="5.0" sigma="0.0" length="4.5" maxSpeed="8.960172876240375" /><vType id="vType_car_36.0371279436809" accel="1.0" decel="5.0" sigma="0.0" length="4.5" maxSpeed="10.010313317689139" /><vType id="vType_car_31.528705521648167" accel="1.0" decel="5.0" sigma="0.0" length="4.5" maxSpeed="8.75797375601338" /><vType id="vType_car_31.511510809797187" accel="1.0" decel="5.0" sigma="0.0" length="4.5" maxSpeed="8.753197447165885" /><vType id="vType_car_10.596597006534052" accel="1.0" decel="5.0" sigma="0.0" length="4.5" maxSpeed="2.943499168481681" /><vType id="vType_car_59.65019434518738" accel="1.0" decel="5.0" sigma="0.0" length="4.5" maxSpeed="16.569498429218715" /><vType id="vType_car_15.280728461512735" accel="1.0" decel="5.0" sigma="0.0" length="4.5" maxSpeed="4.244646794864648" /><vType id="vType_car_4.249280167472218" accel="1.0" decel="5.0" sigma="0.0" length="4.5" maxSpeed="1.180355602075616" /><vType id="vType_car_4.552123526334134" accel="1.0" decel="5.0" sigma="0.0" length="4.5" maxSpeed="1.2644787573150373" /><route id="route_north_to_east" edges="north_to_center center_to_east" /><route id="route_north_to_south" edges="north_to_center center_to_south" /><route id="route_north_to_west" edges="north_to_center center_to_west" /><route id="route_east_to_west" edges="east_to_center center_to_west" /><route id="route_east_to_south" edges="east_to_center center_to_south" /><route id="route_east_to_north" edges="east_to_center center_to_north" /><route id="route_south_to_west" edges="south_to_center center_to_west" /><route id="route_south_to_north" edges="south_to_center center_to_north" /><route id="route_south_to_east" edges="south_to_center center_to_east" /><route id="route_west_to_south" edges="west_to_center center_to_south" /><route id="route_west_to_north" edges="west_to_center center_to_north" /><route id="route_west_to_east" edges="west_to_center center_to_east" /><vehicle id="veh3895" type="vType_car_11.62957543084934" route="route_west_to_north" depart="0.03" /><vehicle id="veh3907" type="vType_car_10.783204082762456" route="route_east_to_west" depart="0.03" /><vehicle id="veh3919" type="vType_car_9.49054047780389" route="route_south_to_north" depart="0.03" /><vehicle id="veh3929" type="vType_car_44.83465823287366" route="route_north_to_south" depart="0.03" /><vehicle id="veh3931" type="vType_car_21.625757852166604" route="route_north_to_west" depart="0.03" /><vehicle id="veh3930" type="vType_car_16.647634162792208" route="route_north_to_east" depart="0.03" /><vehicle id="veh3927" type="vType_car_22.120181344261233" route="route_north_to_east" depart="0.03" /><vehicle id="veh3935" type="vType_car_18.05663671900572" route="route_north_to_east" depart="1.23" /><vehicle id="veh3936" type="vType_car_25.610573681022018" route="route_north_to_south" depart="1.77" /><vehicle id="veh3939" type="vType_car_17.686799833948598" route="route_north_to_east" depart="2.63" /><vehicle id="veh3940" type="vType_car_26.810562909409963" route="route_north_to_south" depart="4.64" /><vehicle id="veh3942" type="vType_car_21.920363706432127" route="route_north_to_east" depart="6.87" /><vehicle id="veh3944" type="vType_car_19.27233944014357" route="route_north_to_east" depart="7.00" /><vehicle id="veh3945" type="vType_car_31.53055773542687" route="route_north_to_south" depart="8.24" /><vehicle id="veh3946" type="vType_car_17.642232441728716" route="route_north_to_east" depart="8.54" /><vehicle id="veh3947" type="vType_car_13.341664082595006" route="route_west_to_south" depart="9.81" /><vehicle id="veh3948" type="vType_car_26.498359062554666" route="route_north_to_south" depart="10.07" /><vehicle id="veh3950" type="vType_car_16.270311214739706" route="route_north_to_east" depart="10.94" /><vehicle id="veh3951" type="vType_car_18.94094549796478" route="route_north_to_west" depart="11.84" /><vehicle id="veh3952" type="vType_car_16.213997166843647" route="route_north_to_east" depart="12.91" /><vehicle id="veh3953" type="vType_car_24.40198850192946" route="route_north_to_south" depart="13.74" /><vehicle id="v