<?xml version="1.0" encoding="utf-8"?>
<routes>
	<vType id="vType_car_39.27590831627839" accel="1.0" decel="5.0" sigma="0.0" length="4.5" maxSpeed="10.909974532299552" />
	<vType id="vType_car_36.38590332784451" accel="1.0" decel="5.0" sigma="0.0" length="4.5" maxSpeed="10.107195368845696" />
	<vType id="vType_car_32.034473668970975" accel="1.0" decel="5.0" sigma="0.0" length="4.5" maxSpeed="8.898464908047492" />
	<vType id="vType_car_34.26318124751552" accel="1.0" decel="5.0" sigma="0.0" length="4.5" maxSpeed="9.517550346532088" />
	<vType id="vType_car_40.40215172659106" accel="1.0" decel="5.0" sigma="0.0" length="4.5" maxSpeed="11.222819924053072" />
	<vType id="vType_car_10.772429975646347" accel="1.0" decel="5.0" sigma="0.0" length="4.5" maxSpeed="2.9923416599017627" />
	<vType id="vType_car_15.2392104063287" accel="1.0" decel="5.0" sigma="0.0" length="4.5" maxSpeed="4.233114001757972" />
	<vType id="vType_car_10.235235948610105" accel="1.0" decel="5.0" sigma="0.0" length="4.5" maxSpeed="2.8431210968361404" />
	<vType id="vType_car_5.8776413633638285" accel="1.0" decel="5.0" sigma="0.0" length="4.5" maxSpeed="1.6326781564899524" />
	<vType id="vType_car_7.99799534957171" accel="1.0" decel="5.0" sigma="0.0" length="4.5" maxSpeed="2.2216653748810304" />
	<vType id="vType_car_20.03671021425108" accel="1.0" decel="5.0" sigma="0.0" length="4.5" maxSpeed="5.565752837291966" />
	<vType id="vType_car_3.7858393697260646" accel="1.0" decel="5.0" sigma="0.0" length="4.5" maxSpeed="1.051622047146129" />
	<vType id="vType_car_18.383211119408987" accel="1.0" decel="5.0" sigma="0.0" length="4.5" maxSpeed="5.106447533169163" />
	<vType id="vType_car_13.584259443661304" accel="1.0" decel="5.0" sigma="0.0" length="4.5" maxSpeed="3.773405401017029" />
	<vType id="vType_car_5.753664956291006" accel="1.0" decel="5.0" sigma="0.0" length="4.5" maxSpeed="1.5982402656363905" />
	<vType id="vType_car_6.655681545642843" accel="1.0" decel="5.0" sigma="0.0" length="4.5" maxSpeed="1.8488004293452343" />
	<vType id="vType_car_5.262379633999251" accel="1.0" decel="5.0" sigma="0.0" length="4.5" maxSpeed="1.4617721205553473" />
	<vType id="vType_car_76.6324107247613" accel="1.0" decel="5.0" sigma="0.0" length="4.5" maxSpeed="21.286780756878137" />
	<vType id="vType_car_7.6975035371187035" accel="1.0" decel="5.0" sigma="0.0" length="4.5" maxSpeed="2.1381954269774175" />
	<vType id="vType_car_45.41656330121284" accel="1.0" decel="5.0" sigma="0.0" length="4.5" maxSpeed="12.615712028114677" />
	<vType id="vType_car_70.53127512621865" accel="1.0" decel="5.0" sigma="0.0" length="4.5" maxSpeed="19.59202086839407" />
	<vType id="vType_car_9.852235869482078" accel="1.0" decel="5.0" sigma="0.0" length="4.5" maxSpeed="2.7367321859672438" />
	<vType id="vType_car_37.677557213255916" accel="1.0" decel="5.0" sigma="0.0" length="4.5" maxSpeed="10.46598811479331" />
	<vType id="vType_car_6.966582793160119" accel="1.0" decel="5.0" sigma="0.0" length="4.5" maxSpeed="1.9351618869889218" />
	<vType id="vType_car_59.32035392842031" accel="1.0" decel="5.0" sigma="0.0" length="4.5" maxSpeed="16.477876091227863" />
	<vType id="vType_car_19.178430452135824" accel="1.0" decel="5.0" sigma="0.0" length="4.5" maxSpeed="5.3273417922599515" />
	<vType id="vType_car_17.79587725820229" accel="1.0" decel="5.0" sigma="0.0" length="4.5" maxSpeed="4.943299238389525" />
	<vType id="vType_car_32.45847899058915" accel="1.0" decel="5.0" sigma="0.0" length="4.5" maxSpeed="9.01624416405254" />
	<vType id="vType_truck_65.46782305552753" accel="1.0" decel="5.0" sigma="0.0" length="8" maxSpeed="18.1855064043132" />
	<vType id="vType_car_70.71450780768458" accel="1.0" decel="5.0" sigma="0.0" length="4.5" maxSpeed="19.64291883546794" />
	<vType id="vType_car_9.819656861014902" accel="1.0" decel="5.0" sigma="0.0" length="4.5" maxSpeed="2.7276824613930284" />
	<vType id="vType_car_6.33380737442933" accel="1.0" decel="5.0" sigma="0.0" length="4.5" maxSpeed="1.7593909373414807" />
	<vType id="vType_car_11.391036840712378" accel="1.0" decel="5.0" sigma="0.0" length="4.5" maxSpeed="3.164176900197883" />
	<vType id="vType_car_107.12216445538027" accel="1.0" decel="5.0" sigma="0.0" length="4.5" maxSpeed="29.756156793161185" />
	<vType id="vType_car_10.253241720177915" accel="1.0" decel="5.0" sigma="0.0" length="4.5" maxSpeed="2.8481227000494207" />
	<vType id="vType_car_56.166386103318516" accel="1.0" decel="5.0" sigma="0.0" length="4.5" maxSpeed="15.601773917588476" />
	<vType id="vType_car_75.08950284908141" accel="1.0" decel="5.0" sigma="0.0" length="4.5" maxSpeed="20.85819523585595" />
	<vType id="vType_car_49.87314292748327" accel="1.0" decel="5.0" sigma="0.0" length="4.5" maxSpeed="13.853650813189798" />
	<vType id="vType_car_23.36662904457957" accel="1.0" decel="5.0" sigma="0.0" length="4.5" maxSpeed="6.490730290160992" />
	<vType id="vType_car_7.788876348193192" accel="1.0" decel="5.0" sigma="0.0" length="4.5" maxSpeed="2.1635767633869976" />
	<vType id="vType_car_1.796072126361593" accel="1.0" decel="5.0" sigma="0.0" length="4.5" maxSpeed="0.4989089239893314" />
	<vType id="vType_truck_29.24179625265453" accel="1.0" decel="5.0" sigma="0.0" length="8" maxSpeed="8.122721181292926" />
	<vType id="vType_car_18.94552622907108" accel="1.0" decel="5.0" sigma="0.0" length="4.5" maxSpeed="5.262646174741967" />
	<vType id="vType_car_4.89105440814409" accel="1.0" decel="5.0" sigma="0.0" length="4.5" maxSpeed="1.3586262244844693" />
	<vType id="vType_car_14.92930639846187" accel="1.0" decel="5.0" sigma="0.0" length="4.5" maxSpeed="4.147029555128297" />
	<vType id="vType_car_14.598525714634814" accel="1.0" decel="5.0" sigma="0.0" length="4.5" maxSpeed="4.0551460318430035" />
	<vType id="vType_truck_8.844367647685486" accel="1.0" decel="5.0" sigma="0.0" length="8" maxSpeed="2.456768791023746" />
	<vType id="vType_truck_8.765114764028572" accel="1.0" decel="5.0" sigma="0.0" length="8" maxSpeed="2.4347541011190477" />
	<vType id="vType_car_55.30658017470028" accel="1.0" decel="5.0" sigma="0.0" length="4.5" maxSpeed="15.362938937416743" />
	<vType id="vType_car_11.545385892946353" accel="1.0" decel="5.0" sigma="0.0" length="4.5" maxSpeed="3.2070516369295423" />
	<vType id="vType_car_54.15768609158866" accel="1.0" decel="5.0" sigma="0.0" length="4.5" maxSpeed="15.04380169210796" />
	<vType id="vType_car_13.078934007100509" accel="1.0" decel="5.0" sigma="0.0" length="4.5" maxSpeed="3.633037224194586" />
	<vType id="vType_car_80.18809492488893" accel="1.0" decel="5.0" sigma="0.0" length="4.5" maxSpeed="22.274470812469147" />
	<vType id="vType_car_25.55577644851885" accel="1.0" decel="5.0" sigma="0.0" length="4.5" maxSpeed="7.098826791255235" />
	<vType id="vType_car_14.257502753260006" accel="1.0" decel="5.0" sigma="0.0" length="4.5" maxSpeed="3.9604174314611127" />
	<vType id="vType_car_7.540785109667226" accel="1.0" decel="5.0" sigma="0.0" length="4.5" maxSpeed="2.0946625304631183" />
	<vType id="vType_truck_9.641778485244961" accel="1.0" decel="5.0" sigma="0.0" length="8" maxSpeed="2.6782718014569338" />
	<vType id="vType_car_62.396768743018825" accel="1.0" decel="5.0" sigma="0.0" length="4.5" maxSpeed="17.33243576194967" />
	<vType id="vType_car_74.56753434873646" accel="1.0" decel="5.0" sigma="0.0" length="4.5" maxSpeed="20.713203985760128" />
	<vType id="vType_car_79.29747867866911" accel="1.0" decel="5.0" sigma="0.0" length="4.5" maxSpeed="22.02707741074142" />
	<vType id="vType_car_28.601724996550356" accel="1.0" decel="5.0" sigma="0.0" length="4.5" maxSpeed="7.944923610152877" />
	<vType id="vType_car_16.057179944237845" accel="1.0" decel="5.0" sigma="0.0" length="4.5" maxSpeed="4.46032776228829" />
	<vType id="vType_car_84.33914514637318" accel="1.0" decel="5.0" sigma="0.0" length="4.5" maxSpeed="23.427540318436996" />
	<vType id="vType_car_35.47450415474471" accel="1.0" decel="5.0" sigma="0.0" length="4.5" maxSpeed="9.854028931873529" />
	<vType id="vType_car_29.878225919732518" accel="1.0" decel="5.0" sigma="0.0" length="4.5" maxSpeed="8.2995071999257" />
	<vType id="vType_car_31.33435429236876" accel="1.0" decel="5.0" sigma="0.0" length="4.5" maxSpeed="8.703987303435767" />
	<vType id="vType_car_34.01793944388573" accel="1.0" decel="5.0" sigma="0.0" length="4.5" maxSpeed="9.449427623301592" />
	<vType id="vType_car_74.64993827948655" accel="1.0" decel="5.0" sigma="0.0" length="4.5" maxSpeed="20.73609396652404" />
	<vType id="vType_car_33.93634215531925" accel="1.0" decel="5.0" sigma="0.0" length="4.5" maxSpeed="9.426761709810902" />
	<vType id="vType_car_49.179545506294495" accel="1.0" decel="5.0" sigma="0.0" length="4.5" maxSpeed="13.660984862859582" />
	<vType id="vType_car_4.4567764664877965" accel="1.0" decel="5.0" sigma="0.0" length="4.5" maxSpeed="1.2379934629132767" />
	<vType id="vType_car_58.52063330810017" accel="1.0" decel="5.0" sigma="0.0" length="4.5" maxSpeed="16.25573147447227" />
	<vType id="vType_car_49.75669364187594" accel="1.0" decel="5.0" sigma="0.0" length="4.5" maxSpeed="13.821303789409983" />
	<vType id="vType_car_44.29524618736986" accel="1.0" decel="5.0" sigma="0.0" length="4.5" maxSpeed="12.304235052047183" />
	<vType id="vType_car_12.76235232551389" accel="1.0" decel="5.0" sigma="0.0" length="4.5" maxSpeed="3.5450978681983027" />
	<vType id="vType_car_12.619867552757777" accel="1.0" decel="5.0" sigma="0.0" length="4.5" maxSpeed="3.505518764654938" />
	<vType id="vType_car_6.314097718371982" accel="1.0" decel="5.0" sigma="0.0" length="4.5" maxSpeed="1.753916032881106" />
	<vType id="vType_car_6.46872713024027" accel="1.0" decel="5.0" sigma="0.0" length="4.5" maxSpeed="1.7968686472889637" />
	<vType id="vType_car_56.392079859097564" accel="1.0" decel="5.0" sigma="0.0" length="4.5" maxSpeed="15.664466627527101" />
	<vType id="vType_car_11.310443517391528" accel="1.0" decel="5.0" sigma="0.0" length="4.5" maxSpeed="3.141789865942091" />
	<vType id="vType_car_14.959288915942595" accel="1.0" decel="5.0" sigma="0.0" length="4.5" maxSpeed="4.155358032206276" />
	<vType id="vType_car_21.65758225731408" accel="1.0" decel="5.0" sigma="0.0" length="4.5" maxSpeed="6.015995071476133" />
	<vType id="vType_car_15.559020355091643" accel="1.0" decel="5.0" sigma="0.0" length="4.5" maxSpeed="4.3219500986365675" />
	<vType id="vType_car_47.213268263208114" accel="1.0" decel="5.0" sigma="0.0" length="4.5" maxSpeed="13.114796739780031" />
	<vType id="vType_car_17.63753902257486" accel="1.0" decel="5.0" sigma="0.0" length="4.5" maxSpeed="4.899316395159683" />
	<vType id="vType_car_59.096843979040294" accel="1.0" decel="5.0" sigma="0.0" length="4.5" maxSpeed="16.41578999417786" />
	<vType id="vType_car_50.40283582178575" accel="1.0" decel="5.0" sigma="0.0" length="4.5" maxSpeed="14.000787728273819" />
	<vType id="vType_car_20.517928592185523" accel="1.0" decel="5.0" sigma="0.0" length="4.5" maxSpeed="5.699424608940423" />
	<vType id="vType_car_49.33919350856654" accel="1.0" decel="5.0" sigma="0.0" length="4.5" maxSpeed="13.705331530157371" />
	<vType id="vType_car_3.668567149128499" accel="1.0" decel="5.0" sigma="0.0" length="4.5" maxSpeed="1.0190464303134719" />
	<vType id="vType_car_27.18099765729954" accel="1.0" decel="5.0" sigma="0.0" length="4.5" maxSpeed="7.550277127027649" />
	<vType id="vType_car_4.535752817947021" accel="1.0" decel="5.0" sigma="0.0" length="4.5" maxSpeed="1.2599313383186168" />
	<vType id="vType_car_4.575443341113124" accel="1.0" decel="5.0" sigma="0.0" length="4.5" maxSpeed="1.2709564836425344" />
	<vType id="vType_car_6.415749732114996" accel="1.0" decel="5.0" sigma="0.0" length="4.5" maxSpeed="1.7821527033652766" />
	<vType id="vType_car_30.59285047434896" accel="1.0" decel="5.0" sigma="0.0" length="4.5" maxSpeed="8.498014020652489" />
	<vType id="vType_car_31.572384626050116" accel="1.0" decel="5.0" sigma="0.0" length="4.5" maxSpeed="8.770106840569477" />
	<vType id="vType_car_27.164958382499176" accel="1.0" decel="5.0" sigma="0.0" length="4.5" maxSpeed="7.545821772916438" />
	<vType id="vType_car_4.650474048727006" accel="1.0" decel="5.0" sigma="0.0" length="4.5" maxSpeed="1.291798346868613" />
	<vType id="vType_car_4.024156438257642" accel="1.0" decel="5.0" sigma="0.0" length="4.5" maxSpeed="1.117821232849345" />
	<vType id="vType_car_37.44283023671943" accel="1.0" decel="5.0" sigma="0.0" length="4.5" maxSpeed="10.400786176866509" />
	<vType id="vType_car_39.52265293818026" accel="1.0" decel="5.0" sigma="0.0" length="4.5" maxSpeed="10.978514705050072" />
	<vType id="vType_car_26.548722854794846" accel="1.0" decel="5.0" sigma="0.0" length="4.5" maxSpeed="7.374645237443013" />
	<vType id="vType_car_3.663873594486271" accel="1.0" decel="5.0" sigma="0.0" length="4.5" maxSpeed="1.0177426651350752" />
	<vType id="vType_car_11.854855984132827" accel="1.0" decel="5.0" sigma="0.0" length="4.5" maxSpeed="3.2930155511480077" />
	<vType id="vType_car_4.46511904009302" accel="1.0" decel="5.0" sigma="0.0" length="4.5" maxSpeed="1.2403108444702833" />
	<vType id="vType_car_45.838711334920156" accel="1.0" decel="5.0" sigma="0.0" length="4.5" maxSpeed="12.732975370811154" />
	<vType id="vType_car_17.91695406286681" accel="1.0" decel="5.0" sigma="0.0" length="4.5" maxSpeed="4.97693168412967" />
	<vType id="vType_car_6.866488394962512" accel="1.0" decel="5.0" sigma="0.0" length="4.5" maxSpeed="1.9073578874895867" />
	<route id="route_north_to_east" edges="north_to_center center_to_east" />
	<route id="route_north_to_south" edges="north_to_center center_to_south" />
	<route id="route_north_to_west" edges="north_to_center center_to_west" />
	<route id="route_east_to_west" edges="east_to_center center_to_west" />
	<route id="route_east_to_south" edges="east_to_center center_to_south" />
	<route id="route_east_to_north" edges="east_to_center center_to_north" />
	<route id="route_south_to_west" edges="south_to_center center_to_west" />
	<route id="route_south_to_north" edges="south_to_center center_to_north" />
	<route id="route_south_to_east" edges="south_to_center center_to_east" />
	<route id="route_west_to_south" edges="west_to_center center_to_south" />
	<route id="route_west_to_north" edges="west_to_center center_to_north" />
	<route id="route_west_to_east" edges="west_to_center center_to_east" />
	<vehicle id="veh1" type="vType_car_39.27590831627839" route="route_west_to_east" depart="0.04" />
	<vehicle id="veh2" type="vType_car_36.38590332784451" route="route_west_to_east" depart="0.04" />
	<vehicle id="veh8" type="vType_car_10.235235948610105" route="route_east_to_south" depart="0.04" />
	<vehicle id="veh33" type="vType_car_59.32035392842031" route="route_west_to_south" depart="3.83" />
	<vehicle id="veh61" type="vType_car_14.92930639846187" route="route_south_to_north" depart="5.32" />
	<vehicle id="veh60" type="vType_car_55.30658017470028" route="route_west_to_east" depart="5.35" />
	<vehicle id="veh69" type="vType_car_11.545385892946353" route="route_south_to_north" depart="5.68" />
	<vehicle id="veh79" type="vType_truck_9.641778485244961" route="route_east_to_north" depart="7.27" />
	<vehicle id="veh85" type="vType_car_28.601724996550356" route="route_east_to_west" depart="7.38" />
	<vehicle id="veh105" type="vType_car_56.392079859097564" route="route_west_to_east" depart="9.66" />
	<vehicle id="veh107" type="vType_car_11.310443517391528" route="route_south_to_east" depart="9.84" />
	<vehicle id="veh108" type="vType_car_14.959288915942595" route="route_south_to_east" depart="10.09" />
	<vehicle id="veh113" type="vType_car_21.65758225731408" route="route_south_to_west" depart="15.88" />
	<vehicle id="veh114" type="vType_car_15.559020355091643" route="route_south_to_east" depart="15.95" />
	<vehicle id="veh117" type="vType_car_47.213268263208114" route="route_east_to_west" depart="18.27" />
	<vehicle id="veh118" type="vType_car_17.63753902257486" route="route_south_to_north" depart="19.53" />
	<vehicle id="veh121" type="vType_car_59.096843979040294" route="route_east_to_west" depart="28.18" />
	<vehicle id="veh123" type="vType_car_50.40283582178575" route="route_east_to_west" depart="28.76" />
	<vehicle id="veh125" type="vType_car_20.517928592185523" route="route_east_to_south" depart="29.48" />
	<vehicle id="veh129" type="vType_car_49.33919350856654" route="route_east_to_west" depart="33.46" />
	<vehicle id="veh131" type="vType_car_27.18099765729954" route="route_south_to_east" depart="34.07" />
	<vehicle id="veh138" type="vType_car_30.59285047434896" route="route_south_to_north" depart="42.58" />
	<vehicle id="veh139" type="vType_car_31.572384626050116" route="route_south_to_north" depart="44.20" />
	<vehicle id="veh140" type="vType_car_27.164958382499176" route="route_south_to_north" depart="44.85" />
	<vehicle id="veh145" type="vType_car_37.44283023671943" route="route_south_to_north" depart="47.31" />
	<vehicle id="veh148" type="vType_car_39.52265293818026" route="route_south_to_north" depart="49.23" />
	<vehicle id="veh151" type="vType_car_26.548722854794846" route="route_south_to_north" depart="49.45" />
	<vehicle id="veh162" type="vType_car_45.838711334920156" route="route_south_to_north" depart="54.19" />
</routes>
