<?xml version='1.0' encoding='utf-8'?>
<routes><vType id="vType_car_7.561528341885294" accel="1.0" decel="5.0" sigma="0.0" length="4.5" maxSpeed="2.1004245394125816" /><vType id="vType_car_8.32148615252092" accel="1.0" decel="5.0" sigma="0.0" length="4.5" maxSpeed="2.3115239312558113" /><vType id="vType_car_8.35804812574484" accel="1.0" decel="5.0" sigma="0.0" length="4.5" maxSpeed="2.3216800349291224" /><vType id="vType_car_5.284334789801276" accel="1.0" decel="5.0" sigma="0.0" length="4.5" maxSpeed="1.467870774944799" /><vType id="vType_car_4.924399685018284" accel="1.0" decel="5.0" sigma="0.0" length="4.5" maxSpeed="1.3678888013939678" /><vType id="vType_car_12.531872814803357" accel="1.0" decel="5.0" sigma="0.0" length="4.5" maxSpeed="3.4810757818898215" /><vType id="vType_car_61.199409218047606" accel="1.0" decel="5.0" sigma="0.0" length="4.5" maxSpeed="16.999835893902112" /><vType id="vType_car_18.56851052953001" accel="1.0" decel="5.0" sigma="0.0" length="4.5" maxSpeed="5.157919591536113" /><vType id="vType_car_15.22330627759329" accel="1.0" decel="5.0" sigma="0.0" length="4.5" maxSpeed="4.228696188220358" /><vType id="vType_car_4.7239973075782205" accel="1.0" decel="5.0" sigma="0.0" length="4.5" maxSpeed="1.3122214743272835" /><vType id="vType_car_16.89080265337817" accel="1.0" decel="5.0" sigma="0.0" length="4.5" maxSpeed="4.691889625938381" /><vType id="vType_car_16.60394216822693" accel="1.0" decel="5.0" sigma="0.0" length="4.5" maxSpeed="4.612206157840814" /><vType id="vType_car_9.316891346100913" accel="1.0" decel="5.0" sigma="0.0" length="4.5" maxSpeed="2.58802537391692" /><vType id="vType_car_29.573006724649336" accel="1.0" decel="5.0" sigma="0.0" length="4.5" maxSpeed="8.21472409018037" /><vType id="vType_car_10.243094792107131" accel="1.0" decel="5.0" sigma="0.0" length="4.5" maxSpeed="2.8453041089186475" /><vType id="vType_bus_20.53257425936965" accel="1.0" decel="5.0" sigma="0.0" length="13" maxSpeed="5.703492849824903" /><vType id="vType_car_20.87893140918096" accel="1.0" decel="5.0" sigma="0.0" length="4.5" maxSpeed="5.799703169216934" /><vType id="vType_car_4.293194175162552" accel="1.0" decel="5.0" sigma="0.0" length="4.5" maxSpeed="1.1925539375451533" /><vType id="vType_car_11.655941347381892" accel="1.0" decel="5.0" sigma="0.0" length="4.5" maxSpeed="3.2377614853838588" /><vType id="vType_car_36.573981923819844" accel="1.0" decel="5.0" sigma="0.0" length="4.5" maxSpeed="10.15943942328329" /><vType id="vType_car_10.997872223246715" accel="1.0" decel="5.0" sigma="0.0" length="4.5" maxSpeed="3.0549645064574205" /><vType id="vType_car_14.534896616608414" accel="1.0" decel="5.0" sigma="0.0" length="4.5" maxSpeed="4.037471282391226" /><vType id="vType_car_16.28522682509072" accel="1.0" decel="5.0" sigma="0.0" length="4.5" maxSpeed="4.523674118080756" /><vType id="vType_car_19.681400600516326" accel="1.0" decel="5.0" sigma="0.0" length="4.5" maxSpeed="5.467055722365646" /><vType id="vType_car_18.60788479455156" accel="1.0" decel="5.0" sigma="0.0" length="4.5" maxSpeed="5.168856887375433" /><vType id="vType_car_5.027664693568883" accel="1.0" decel="5.0" sigma="0.0" length="4.5" maxSpeed="1.3965735259913563" /><vType id="vType_car_33.73907595704624" accel="1.0" decel="5.0" sigma="0.0" length="4.5" maxSpeed="9.371965543623956" /><vType id="vType_car_32.786268669825425" accel="1.0" decel="5.0" sigma="0.0" length="4.5" maxSpeed="9.107296852729284" /><vType id="vType_car_48.930634022011645" accel="1.0" decel="5.0" sigma="0.0" length="4.5" maxSpeed="13.591842783892123" /><vType id="vType_car_21.379119390586485" accel="1.0" decel="5.0" sigma="0.0" length="4.5" maxSpeed="5.938644275162912" /><vType id="vType_car_14.091544993232473" accel="1.0" decel="5.0" sigma="0.0" length="4.5" maxSpeed="3.9143180536756867" /><vType id="vType_car_18.359802576744976" accel="1.0" decel="5.0" sigma="0.0" length="4.5" maxSpeed="5.0999451602069374" /><vType id="vType_car_42.87654144625664" accel="1.0" decel="5.0" sigma="0.0" length="4.5" maxSpeed="11.910150401737955" /><vType id="vType_car_10.035053048065556" accel="1.0" decel="5.0" sigma="0.0" length="4.5" maxSpeed="2.7875147355737657" /><vType id="vType_car_24.323754999254867" accel="1.0" decel="5.0" sigma="0.0" length="4.5" maxSpeed="6.756598610904129" /><vType id="vType_car_29.570105032843298" accel="1.0" decel="5.0" sigma="0.0" length="4.5" maxSpeed="8.213918064678694" /><vType id="vType_car_29.332803094111004" accel="1.0" decel="5.0" sigma="0.0" length="4.5" maxSpeed="8.148000859475278" /><vType id="vType_car_36.62778194335254" accel="1.0" decel="5.0" sigma="0.0" length="4.5" maxSpeed="10.174383873153483" /><vType id="vType_car_27.43666237828277" accel="1.0" decel="5.0" sigma="0.0" length="4.5" maxSpeed="7.621295105078547" /><vType id="vType_car_35.18568253023679" accel="1.0" decel="5.0" sigma="0.0" length="4.5" maxSpeed="9.773800702843552" /><vType id="vType_car_26.31609895255614" accel="1.0" decel="5.0" sigma="0.0" length="4.5" maxSpeed="7.3100274868211494" /><vType id="vType_car_27.672307525212986" accel="1.0" decel="5.0" sigma="0.0" length="4.5" maxSpeed="7.68675209033694" /><vType id="vType_car_8.343976052987202" accel="1.0" decel="5.0" sigma="0.0" length="4.5" maxSpeed="2.317771125829778" /><vType id="vType_car_31.911259017732895" accel="1.0" decel="5.0" sigma="0.0" length="4.5" maxSpeed="8.864238616036916" /><vType id="vType_car_21.4328572776001" accel="1.0" decel="5.0" sigma="0.0" length="4.5" maxSpeed="5.953571466000027" /><vType id="vType_car_29.51885694286569" accel="1.0" decel="5.0" sigma="0.0" length="4.5" maxSpeed="8.199682484129358" /><vType id="vType_car_26.687651536568882" accel="1.0" decel="5.0" sigma="0.0" length="4.5" maxSpeed="7.4132365379358" /><vType id="vType_car_23.114346320160838" accel="1.0" decel="5.0" sigma="0.0" length="4.5" maxSpeed="6.4206517556002325" /><vType id="vType_car_18.31731187763352" accel="1.0" decel="5.0" sigma="0.0" length="4.5" maxSpeed="5.088142188231534" /><vType id="vType_car_33.698448309080945" accel="1.0" decel="5.0" sigma="0.0" length="4.5" maxSpeed="9.360680085855817" /><vType id="vType_car_30.459368213350224" accel="1.0" decel="5.0" sigma="0.0" length="4.5" maxSpeed="8.460935614819507" /><vType id="vType_car_15.732734182683423" accel="1.0" decel="5.0" sigma="0.0" length="4.5" maxSpeed="4.370203939634284" /><vType id="vType_car_31.15202725571059" accel="1.0" decel="5.0" sigma="0.0" length="4.5" maxSpeed="8.653340904364052" /><vType id="vType_car_10.469883502360267" accel="1.0" decel="5.0" sigma="0.0" length="4.5" maxSpeed="2.9083009728778517" /><route id="route_north_to_east" edges="north_to_center center_to_east" /><route id="route_north_to_south" edges="north_to_center center_to_south" /><route id="route_north_to_west" edges="north_to_center center_to_west" /><route id="route_east_to_west" edges="east_to_center center_to_west" /><route id="route_east_to_south" edges="east_to_center center_to_south" /><route id="route_east_to_north" edges="east_to_center center_to_north" /><route id="route_south_to_west" edges="south_to_center center_to_west" /><route id="route_south_to_north" edges="south_to_center center_to_north" /><route id="route_south_to_east" edges="south_to_center center_to_east" /><route id="route_west_to_south" edges="west_to_center center_to_south" /><route id="route_west_to_north" edges="west_to_center center_to_north" /><route id="route_west_to_east" edges="west_to_center center_to_east" /><vehicle id="veh85" type="vType_car_7.561528341885294" route="route_east_to_north" depart="0.03" /><vehicle id="veh90" type="vType_car_8.32148615252092" route="route_east_to_north" depart="0.03" /><vehicle id="veh93" type="vType_car_8.35804812574484" route="route_east_to_north" depart="0.03" /><vehicle id="veh99" type="vType_car_18.56851052953001" route="route_north_to_west" depart="1.53" /><vehicle id="veh100" type="vType_car_15.22330627759329" route="route_north_to_east" depart="2.70" /><vehicle id="veh102" type="vType_car_16.89080265337817" route="route_north_to_south" depart="6.43" /><vehicle id="veh103" type="vType_car_16.60394216822693" route="route_north_to_east" depart="9.37" /><vehicle id="veh105" type="vType_car_9.316891346100913" route="route_east_to_north" depart="10.34" /><vehicle id="veh106" type="vType_car_29.573006724649336" route="route_north_to_south" depart="13.60" /><vehicle id="veh107" type="vType_car_10.243094792107131" route="route_east_to_north" depart="14.67" /><vehicle id="veh109" type="vType_bus_20.53257425936965" route="route_north_to_east" depart="22.40" /><vehicle id="veh110" type="vType_car_20.87893140918096" route="route_north_to_west" depart="22.70" /><vehicle id="veh112" type="vType_car_11.655941347381892" route="route_north_to_east" depart="25.14" /><vehicle id="veh114" type="vType_car_36.573981923819844" route="route_north_to_south" depart="25.84" /><vehicle id="veh119" type="vType_car_14.534896616608414" route="route_south_to_north" depart="30.47" /><vehicle id="veh120" type="vType_car_16.28522682509072" route="route_north_to_east" depart="33.84" /><vehicle id="veh121" type="vType_car_19.681400600516326" route="route_south_to_north" depart="34.21" /><vehicle id="veh126" type="vType_car_33.73907595704624" route="route_west_to_east" depart="52.11" /><vehicle id="veh127" type="vType_car_32.786268669825425" route="route_east_to_west" depart="54.94" /><vehicle id="veh129" type="vType_car_48.930634022011645" route="route_west_to_east" depart="57.68" /><vehicle id="veh131" type="vType_car_21.379119390586485" route="route_west_to_south" depart="62.78" /><vehicle id="veh134" type="vType_car_18.359802576744976" route="route_west_to_north" depart="65.01" /><vehicle id="veh136" type="vType_car_42.87654144625664" route="route_east_to_west" depart="65.35" /><vehicle id="veh137" type="vType_car_10.035053048065556" route="route_east_to_north" depart="67.41" /><vehicle id="veh140" type="vType_car_24.323754999254867" route="route_south_to_north" depart="79.82" /><vehicle id="veh142" type="vType_car_29.570105032843298" route="route_south_to_north" depart="82.88" /><vehicle id="veh143" type="vType_car_29.332803094111004" route="route_south_to_north" depart="85.35" /><vehicle id="veh144" type="vType_car_36.62778194335254" route="route_south_to_west" depart="93.55" /><vehicle id="veh145" type="vType_car_27.43666237828277" route="route_north_to_west" depart="95.05" /><vehicle id="veh146" type="vType_car_35.18568253023679" route="route_north_to_south" depart="98.19" /><vehicle id="veh148" type="vType_car_26.31609895255614" route="route_north_to_west" depart="99.82" /><vehicle id="veh150" type="vType_car_27.672307525212986" route="route_north_to_south" depart="99.99" /><vehicle id="veh153" type="vType_car_31.911259017732895" route="route_north_to_south" depart="102.39" /><vehicle id="veh154" type="vType_car_21.4328572776001" route="route_north_to_east" depart="103.66" /><vehicle id="veh155" type="vType_car_29.51885694286569" route="route_north_to_south" depart="104.02" /><vehicle id="veh156" type="vType_car_26.687651536568882" route="route_north_to_south" depart="106.46" /><vehicle id="veh158" type="vType_car_18.31731187763352" route="route_north_to_east" depart="110.09" /><vehicle id="veh160" type="vType_car_33.698448309080945" route="route_north_to_south" depart="110.39" /><vehicle id="veh161" type="vType_car_30.459368213350224" route="route_north_to_south" depart="112.26" /><vehicle id="veh164" type="vType_car_15.732734182683423" route="route_north_to_east" depart="112.92" /><vehicle id="veh168" type="vType_car_31.15202725571059" route="route_north_to_south" depart="115.16" /></routes>