<?xml version='1.0' encoding='utf-8'?>
<routes><vType id="vType_car_44.80787213089731" accel="1.0" decel="5.0" sigma="0.0" length="4.5" maxSpeed="12.446631147471475" /><vType id="vType_car_23.028553322029154" accel="1.0" decel="5.0" sigma="0.0" length="4.5" maxSpeed="6.396820367230321" /><vType id="vType_car_14.830518594611664" accel="1.0" decel="5.0" sigma="0.0" length="4.5" maxSpeed="4.11958849850324" /><vType id="vType_car_15.709526358699042" accel="1.0" decel="5.0" sigma="0.0" length="4.5" maxSpeed="4.363757321860845" /><vType id="vType_car_18.751984615283998" accel="1.0" decel="5.0" sigma="0.0" length="4.5" maxSpeed="5.208884615356666" /><vType id="vType_car_16.073426992636733" accel="1.0" decel="5.0" sigma="0.0" length="4.5" maxSpeed="4.464840831287981" /><vType id="vType_car_18.719080470637095" accel="1.0" decel="5.0" sigma="0.0" length="4.5" maxSpeed="5.199744575176971" /><vType id="vType_car_20.305502775438953" accel="1.0" decel="5.0" sigma="0.0" length="4.5" maxSpeed="5.640417437621931" /><vType id="vType_car_20.480269601316223" accel="1.0" decel="5.0" sigma="0.0" length="4.5" maxSpeed="5.688963778143395" /><vType id="vType_car_22.89839852318447" accel="1.0" decel="5.0" sigma="0.0" length="4.5" maxSpeed="6.36066625644013" /><vType id="vType_car_10.2075580122161" accel="1.0" decel="5.0" sigma="0.0" length="4.5" maxSpeed="2.835432781171139" /><vType id="vType_car_15.874023617231797" accel="1.0" decel="5.0" sigma="0.0" length="4.5" maxSpeed="4.40945100478661" /><vType id="vType_bus_6.6686699883232325" accel="1.0" decel="5.0" sigma="0.0" length="13" maxSpeed="1.8524083300897867" /><vType id="vType_car_8.330846664570482" accel="1.0" decel="5.0" sigma="0.0" length="4.5" maxSpeed="2.3141240734918003" /><vType id="vType_car_4.554474169886404" accel="1.0" decel="5.0" sigma="0.0" length="4.5" maxSpeed="1.2651317138573346" /><vType id="vType_car_16.074158293392102" accel="1.0" decel="5.0" sigma="0.0" length="4.5" maxSpeed="4.465043970386695" /><vType id="vType_car_7.389770664319849" accel="1.0" decel="5.0" sigma="0.0" length="4.5" maxSpeed="2.0527140734221803" /><vType id="vType_car_4.673829782961758" accel="1.0" decel="5.0" sigma="0.0" length="4.5" maxSpeed="1.2982860508227105" /><vType id="vType_car_7.4329379549382235" accel="1.0" decel="5.0" sigma="0.0" length="4.5" maxSpeed="2.06470498748284" /><vType id="vType_car_40.348239243766244" accel="1.0" decel="5.0" sigma="0.0" length="4.5" maxSpeed="11.207844234379513" /><vType id="vType_car_9.801269025963162" accel="1.0" decel="5.0" sigma="0.0" length="4.5" maxSpeed="2.7225747294342115" /><vType id="vType_car_7.601193284641252" accel="1.0" decel="5.0" sigma="0.0" length="4.5" maxSpeed="2.1114425790670146" /><vType id="vType_car_6.966582793160119" accel="1.0" decel="5.0" sigma="0.0" length="4.5" maxSpeed="1.9351618869889218" /><vType id="vType_car_20.71381326549805" accel="1.0" decel="5.0" sigma="0.0" length="4.5" maxSpeed="5.753837018193903" /><vType id="vType_car_32.09797296060514" accel="1.0" decel="5.0" sigma="0.0" length="4.5" maxSpeed="8.916103600168094" /><vType id="vType_car_23.460944985841437" accel="1.0" decel="5.0" sigma="0.0" length="4.5" maxSpeed="6.5169291627337325" /><vType id="vType_bus_3.7092272761079075" accel="1.0" decel="5.0" sigma="0.0" length="13" maxSpeed="1.0303409100299743" /><vType id="vType_car_5.534874393131249" accel="1.0" decel="5.0" sigma="0.0" length="4.5" maxSpeed="1.5374651092031246" /><vType id="vType_car_28.36822515488135" accel="1.0" decel="5.0" sigma="0.0" length="4.5" maxSpeed="7.880062543022597" /><vType id="vType_bus_5.517775494495428" accel="1.0" decel="5.0" sigma="0.0" length="13" maxSpeed="1.5327154151376188" /><vType id="vType_car_11.571814935145039" accel="1.0" decel="5.0" sigma="0.0" length="4.5" maxSpeed="3.2143930375402885" /><vType id="vType_car_28.545557578559634" accel="1.0" decel="5.0" sigma="0.0" length="4.5" maxSpeed="7.929321549599898" /><vType id="vType_car_5.442642807156342" accel="1.0" decel="5.0" sigma="0.0" length="4.5" maxSpeed="1.511845224210095" /><vType id="vType_car_10.938679832471184" accel="1.0" decel="5.0" sigma="0.0" length="4.5" maxSpeed="3.03852217568644" /><vType id="vType_car_3.4832913965800594" accel="1.0" decel="5.0" sigma="0.0" length="4.5" maxSpeed="0.9675809434944609" /><vType id="vType_car_39.294411478075446" accel="1.0" decel="5.0" sigma="0.0" length="4.5" maxSpeed="10.915114299465401" /><vType id="vType_car_3.6138886482994588" accel="1.0" decel="5.0" sigma="0.0" length="4.5" maxSpeed="1.0038579578609608" /><vType id="vType_car_11.511268014742678" accel="1.0" decel="5.0" sigma="0.0" length="4.5" maxSpeed="3.1975744485396325" /><vType id="vType_car_3.993086658805115" accel="1.0" decel="5.0" sigma="0.0" length="4.5" maxSpeed="1.1091907385569764" /><vType id="vType_car_12.839797706803349" accel="1.0" decel="5.0" sigma="0.0" length="4.5" maxSpeed="3.5666104741120415" /><vType id="vType_car_11.800893331207762" accel="1.0" decel="5.0" sigma="0.0" length="4.5" maxSpeed="3.2780259253354895" /><vType id="vType_car_61.87766768319707" accel="1.0" decel="5.0" sigma="0.0" length="4.5" maxSpeed="17.188241023110297" /><vType id="vType_car_29.517436894332704" accel="1.0" decel="5.0" sigma="0.0" length="4.5" maxSpeed="8.19928802620353" /><vType id="vType_car_10.073219673283319" accel="1.0" decel="5.0" sigma="0.0" length="4.5" maxSpeed="2.798116575912033" /><vType id="vType_car_5.082952226352133" accel="1.0" decel="5.0" sigma="0.0" length="4.5" maxSpeed="1.4119311739867035" /><vType id="vType_car_6.838539690740149" accel="1.0" decel="5.0" sigma="0.0" length="4.5" maxSpeed="1.89959435853893" /><vType id="vType_car_60.054898990732134" accel="1.0" decel="5.0" sigma="0.0" length="4.5" maxSpeed="16.68191638631448" /><vType id="vType_car_11.362798500096625" accel="1.0" decel="5.0" sigma="0.0" length="4.5" maxSpeed="3.156332916693507" /><vType id="vType_car_10.65274207293138" accel="1.0" decel="5.0" sigma="0.0" length="4.5" maxSpeed="2.9590950202587165" /><vType id="vType_car_4.337937814354427" accel="1.0" decel="5.0" sigma="0.0" length="4.5" maxSpeed="1.204982726209563" /><vType id="vType_car_11.710959010172141" accel="1.0" decel="5.0" sigma="0.0" length="4.5" maxSpeed="3.253044169492261" /><vType id="vType_car_62.87908087094921" accel="1.0" decel="5.0" sigma="0.0" length="4.5" maxSpeed="17.466411353041448" /><vType id="vType_car_4.2823178441284036" accel="1.0" decel="5.0" sigma="0.0" length="4.5" maxSpeed="1.189532734480112" /><vType id="vType_car_17.963910520855027" accel="1.0" decel="5.0" sigma="0.0" length="4.5" maxSpeed="4.989975144681952" /><vType id="vType_car_9.392668879404308" accel="1.0" decel="5.0" sigma="0.0" length="4.5" maxSpeed="2.609074688723419" /><vType id="vType_car_3.270850308828446" accel="1.0" decel="5.0" sigma="0.0" length="4.5" maxSpeed="0.9085695302301239" /><vType id="vType_car_16.888716952330505" accel="1.0" decel="5.0" sigma="0.0" length="4.5" maxSpeed="4.691310264536251" /><vType id="vType_car_10.975383122927672" accel="1.0" decel="5.0" sigma="0.0" length="4.5" maxSpeed="3.0487175341465758" /><vType id="vType_car_38.618933720193276" accel="1.0" decel="5.0" sigma="0.0" length="4.5" maxSpeed="10.727481588942576" /><vType id="vType_car_12.498617169297649" accel="1.0" decel="5.0" sigma="0.0" length="4.5" maxSpeed="3.47183810258268" /><vType id="vType_car_10.608517074513658" accel="1.0" decel="5.0" sigma="0.0" length="4.5" maxSpeed="2.946810298476016" /><vType id="vType_car_45.03623040592149" accel="1.0" decel="5.0" sigma="0.0" length="4.5" maxSpeed="12.510064001644858" /><vType id="vType_car_7.892452110100639" accel="1.0" decel="5.0" sigma="0.0" length="4.5" maxSpeed="2.192347808361289" /><vType id="vType_car_50.38601969615639" accel="1.0" decel="5.0" sigma="0.0" length="4.5" maxSpeed="13.996116582265664" /><vType id="vType_car_47.18185521532789" accel="1.0" decel="5.0" sigma="0.0" length="4.5" maxSpeed="13.106070893146637" /><vType id="vType_car_4.334613264643931" accel="1.0" decel="5.0" sigma="0.0" length="4.5" maxSpeed="1.2040592401788697" /><vType id="vType_bus_4.712688360078904" accel="1.0" decel="5.0" sigma="0.0" length="13" maxSpeed="1.3090801000219177" /><vType id="vType_car_8.005139618460214" accel="1.0" decel="5.0" sigma="0.0" length="4.5" maxSpeed="2.223649894016726" /><vType id="vType_car_9.6673323141067" accel="1.0" decel="5.0" sigma="0.0" length="4.5" maxSpeed="2.685370087251861" /><vType id="vType_car_5.300391915706443" accel="1.0" decel="5.0" sigma="0.0" length="4.5" maxSpeed="1.4723310876962343" /><vType id="vType_car_4.170741575063585" accel="1.0" decel="5.0" sigma="0.0" length="4.5" maxSpeed="1.1585393264065513" /><vType id="vType_car_5.117993752740072" accel="1.0" decel="5.0" sigma="0.0" length="4.5" maxSpeed="1.4216649313166867" /><vType id="vType_car_4.203456417396751" accel="1.0" decel="5.0" sigma="0.0" length="4.5" maxSpeed="1.1676267826102087" /><vType id="vType_truck_3.80996556054963" accel="1.0" decel="5.0" sigma="0.0" length="8" maxSpeed="1.0583237668193417" /><vType id="vType_car_3.7863933435910324" accel="1.0" decel="5.0" sigma="0.0" length="4.5" maxSpeed="1.0517759287752868" /><vType id="vType_car_4.219162595303208" accel="1.0" decel="5.0" sigma="0.0" length="4.5" maxSpeed="1.1719896098064468" /><vType id="vType_car_4.6238152493039895" accel="1.0" decel="5.0" sigma="0.0" length="4.5" maxSpeed="1.2843931248066638" /><vType id="vType_car_5.475430180377967" accel="1.0" decel="5.0" sigma="0.0" length="4.5" maxSpeed="1.5209528278827686" /><vType id="vType_car_3.9642335759670524" accel="1.0" decel="5.0" sigma="0.0" length="4.5" maxSpeed="1.1011759933241811" /><vType id="vType_car_8.976551711580553" accel="1.0" decel="5.0" sigma="0.0" length="4.5" maxSpeed="2.4934865865501536" /><vType id="vType_car_1.8867828398141988" accel="1.0" decel="5.0" sigma="0.0" length="4.5" maxSpeed="0.524106344392833" /><vType id="vType_car_28.57842599610626" accel="1.0" decel="5.0" sigma="0.0" length="4.5" maxSpeed="7.938451665585072" /><vType id="vType_car_35.35749681307588" accel="1.0" decel="5.0" sigma="0.0" length="4.5" maxSpeed="9.821526892521078" /><vType id="vType_car_22.524957224118015" accel="1.0" decel="5.0" sigma="0.0" length="4.5" maxSpeed="6.256932562255004" /><vType id="vType_car_27.24572082327789" accel="1.0" decel="5.0" sigma="0.0" length="4.5" maxSpeed="7.568255784243858" /><vType id="vType_car_94.506903774521" accel="1.0" decel="5.0" sigma="0.0" length="4.5" maxSpeed="26.251917715144724" /><vType id="vType_car_12.019984876822324" accel="1.0" decel="5.0" sigma="0.0" length="4.5" maxSpeed="3.338884688006201" /><vType id="vType_car_10.267853751259134" accel="1.0" decel="5.0" sigma="0.0" length="4.5" maxSpeed="2.8521815975719815" /><vType id="vType_car_28.171744460902715" accel="1.0" decel="5.0" sigma="0.0" length="4.5" maxSpeed="7.825484572472976" /><vType id="vType_car_19.650141620660822" accel="1.0" decel="5.0" sigma="0.0" length="4.5" maxSpeed="5.458372672405784" /><vType id="vType_car_25.325248508041067" accel="1.0" decel="5.0" sigma="0.0" length="4.5" maxSpeed="7.03479125223363" /><vType id="vType_car_2.6124685474350446" accel="1.0" decel="5.0" sigma="0.0" length="4.5" maxSpeed="0.7256857076208457" /><vType id="vType_car_15.793131916601366" accel="1.0" decel="5.0" sigma="0.0" length="4.5" maxSpeed="4.386981087944823" /><vType id="vType_car_3.5694302943807132" accel="1.0" decel="5.0" sigma="0.0" length="4.5" maxSpeed="0.9915084151057536" /><vType id="vType_car_27.243094636780715" accel="1.0" decel="5.0" sigma="0.0" length="4.5" maxSpeed="7.567526287994642" /><vType id="vType_car_5.736472310426977" accel="1.0" decel="5.0" sigma="0.0" length="4.5" maxSpeed="1.5934645306741602" /><vType id="vType_car_42.89443651303916" accel="1.0" decel="5.0" sigma="0.0" length="4.5" maxSpeed="11.915121253621988" /><vType id="vType_car_5.031895022295145" accel="1.0" decel="5.0" sigma="0.0" length="4.5" maxSpeed="1.3977486173042069" /><vType id="vType_car_5.560441913574853" accel="1.0" decel="5.0" sigma="0.0" length="4.5" maxSpeed="1.544567198215237" /><route id="route_north_to_east" edges="north_to_center center_to_east" /><route id="route_north_to_south" edges="north_to_center center_to_south" /><route id="route_north_to_west" edges="north_to_center center_to_west" /><route id="route_east_to_west" edges="east_to_center center_to_west" /><route id="route_east_to_south" edges="east_to_center center_to_south" /><route id="route_east_to_north" edges="east_to_center center_to_north" /><route id="route_south_to_west" edges="south_to_center center_to_west" /><route id="route_south_to_north" edges="south_to_center center_to_north" /><route id="route_south_to_east" edges="south_to_center center_to_east" /><route id="route_west_to_south" edges="west_to_center center_to_south" /><route id="route_west_to_north" edges="west_to_center center_to_north" /><route id="route_west_to_east" edges="west_to_center center_to_east" /><vehicle id="veh169" type="vType_car_44.80787213089731" route="route_south_to_west" depart="0.04" /><vehicle id="veh198" type="vType_car_23.028553322029154" route="route_north_to_south" depart="0.04" /><vehicle id="veh220" type="vType_car_14.830518594611664" route="route_north_to_east" depart="0.04" /><vehicle id="veh229" type="vType_car_15.709526358699042" route="route_south_to_north" depart="0.04" /><vehicle id="veh225" type="vType_car_18.751984615283998" route="route_south_to_north" depart="0.04" /><vehicle id="veh361" type="vType_car_16.073426992636733" route="route_north_to_west" depart="0.04" /><vehicle id="veh377" type="vType_car_18.719080470637095" route="route_west_to_east" depart="0.04" /><vehicle id="veh365" type="vType_car_20.305502775438953" route="route_west_to_east" depart="0.04" /><vehicle id="veh202" type="vType_car_20.480269601316223" route="route_north_to_south" depart="0.04" /><vehicle id="veh392" type="vType_car_22.89839852318447" route="route_east_to_west" depart="0.04" /><vehicle id="veh400" type="vType_car_15.874023617231797" route="route_north_to_west" depart="0.04" /><vehicle id="veh401" type="vType_car_16.074158293392102" route="route_south_to_east" depart="0.04" /><vehicle id="veh408" type="vType_car_40.348239243766244" route="route_south_to_west" depart="4.23" /><vehicle id="veh410" type="vType_car_9.801269025963162" route="route_east_to_north" depart="7.16" /><vehicle id="veh415" type="vType_car_20.71381326549805" route="route_south_to_north" depart="12.37" /><vehicle id="veh416" type="vType_car_32.09797296060514" route="route_south_to_north" depart="13.67" /><vehicle id="veh417" type="vType_car_23.460944985841437" route="route_south_to_north" depart="16.64" /><vehicle id="veh422" type="vType_car_28.36822515488135" route="route_south_to_north" depart="19.64" /><vehicle id="veh424" type="vType_car_11.571814935145039" route="route_north_to_south" depart="24.05" /><vehicle id="veh425" type="vType_car_28.545557578559634" route="route_west_to_east" depart="24.38" /><vehicle id="veh428" type="vType_car_10.938679832471184" route="route_east_to_south" depart="28.00" /><vehicle id="veh431" type="vType_car_39.294411478075446" route="route_east_to_west" depart="29.91" /><vehicle id="veh434" type="vType_car_11.511268014742678" route="route_north_to_south" depart="31.47" /><vehicle id="veh436" type="vType_car_12.839797706803349" route="route_north_to_south" depart="35.30" /><vehicle id="veh437" type="vType_car_11.800893331207762" route="route_east_to_south" depart="35.88" /><vehicle id="veh438" type="vType_car_61.87766768319707" route="route_west_to_east" depart="39.72" /><vehicle id="veh441" type="vType_car_10.073219673283319" route="route_north_to_east" depart="43.05" /><vehicle id="veh445" type="vType_car_60.054898990732134" route="route_west_to_east" depart="44.71" /><vehicle id="veh456" type="vType_car_62.87908087094921" route="route_west_to_east" depart="51.44" /><vehicle id="veh459" type="vType_car_17.963910520855027" route="route_south_to_west" depart="55.96" /><vehicle id="veh462" type="vType_car_16.888716952330505" route="route_east_to_south" depart="60.26" /><vehicle id="veh463" type="vType_car_10.975383122927672" route="route_east_to_north" depart="60.34" /><vehicle id="veh465" type="vType_car_38.618933720193276" route="route_east_to_west" depart="62.43" /><vehicle id="veh468" type="vType_car_10.608517074513658" route="route_north_to_west" depart="65.29" /><vehicle id="veh470" type="vType_car_45.03623040592149" route="route_east_to_west" depart="65.54" /><vehicle id="veh474" type="vType_car_50.38601969615639" route="route_east_to_west" depart="68.15" /><vehicle id="veh475" type="vType_car_47.18185521532789" route="route_east_to_west" depart="69.09" /><vehicle id="veh479" type="vType_car_8.005139618460214" route="route_north_to_east" depart="72.92" /><vehicle id="veh509" type="vType_car_28.57842599610626" route="route_south_to_north" depart="91.99" /><vehicle id="veh513" type="vType_car_35.35749681307588" route="route_south_to_north" depart="92.96" /><vehicle id="veh514" type="vType_car_22.524957224118015" route="route_north_to_south" depart="93.25" /><vehicle id="veh518" type="vType_car_94.506903774521" route="route_south_to_north" depart="95.06" /><vehicle id="veh521" type="vType_car_10.267853751259134" route="route_south_to_east" depart="96.22" /><vehicle id="veh528" type="vType_car_25.325248508041067" route="route_north_to_south" depart="98.82" /><vehicle id="veh531" type="vType_car_15.793131916601366" route="route_north_to_west" depart="99.87" /><vehicle id="veh534" type="vType_car_27.243094636780715" route="route_north_to_south" depart="101.57" /><vehicle id="veh538" type="vType_car_42.89443651303916" route="route_south_to_north" depart="109.49" /></routes>