<?xml version='1.0' encoding='utf-8'?>
<routes><vType id="vType_car_9.259685196687869" accel="1.0" decel="5.0" sigma="0.0" length="4.5" maxSpeed="2.5721347768577414" /><vType id="vType_car_12.644369844189589" accel="1.0" decel="5.0" sigma="0.0" length="4.5" maxSpeed="3.51232495671933" /><vType id="vType_car_15.101721113919027" accel="1.0" decel="5.0" sigma="0.0" length="4.5" maxSpeed="4.194922531644174" /><vType id="vType_car_15.2456469118258" accel="1.0" decel="5.0" sigma="0.0" length="4.5" maxSpeed="4.234901919951611" /><vType id="vType_car_9.903659617726372" accel="1.0" decel="5.0" sigma="0.0" length="4.5" maxSpeed="2.751016560479548" /><vType id="vType_car_10.206188215589144" accel="1.0" decel="5.0" sigma="0.0" length="4.5" maxSpeed="2.8350522821080957" /><vType id="vType_car_14.54417015622951" accel="1.0" decel="5.0" sigma="0.0" length="4.5" maxSpeed="4.040047265619308" /><vType id="vType_car_7.35149654994652" accel="1.0" decel="5.0" sigma="0.0" length="4.5" maxSpeed="2.0420823749851444" /><vType id="vType_car_10.661133537942119" accel="1.0" decel="5.0" sigma="0.0" length="4.5" maxSpeed="2.9614259827616998" /><vType id="vType_car_10.263648282487221" accel="1.0" decel="5.0" sigma="0.0" length="4.5" maxSpeed="2.851013411802006" /><vType id="vType_car_11.442144015887973" accel="1.0" decel="5.0" sigma="0.0" length="4.5" maxSpeed="3.1783733377466588" /><vType id="vType_car_21.127547155034936" accel="1.0" decel="5.0" sigma="0.0" length="4.5" maxSpeed="5.868763098620815" /><vType id="vType_car_9.057035909539582" accel="1.0" decel="5.0" sigma="0.0" length="4.5" maxSpeed="2.5158433082054397" /><vType id="vType_car_2.7116214211707153" accel="1.0" decel="5.0" sigma="0.0" length="4.5" maxSpeed="0.7532281725474209" /><vType id="vType_car_2.9959025108754695" accel="1.0" decel="5.0" sigma="0.0" length="4.5" maxSpeed="0.8321951419098527" /><vType id="vType_car_2.766589646096017" accel="1.0" decel="5.0" sigma="0.0" length="4.5" maxSpeed="0.7684971239155602" /><vType id="vType_car_2.5990812886175463" accel="1.0" decel="5.0" sigma="0.0" length="4.5" maxSpeed="0.721967024615985" /><vType id="vType_car_9.264112186154906" accel="1.0" decel="5.0" sigma="0.0" length="4.5" maxSpeed="2.57336449615414" /><vType id="vType_car_53.62369082629405" accel="1.0" decel="5.0" sigma="0.0" length="4.5" maxSpeed="14.89546967397057" /><vType id="vType_car_0.13832948230480085" accel="1.0" decel="5.0" sigma="0.0" length="4.5" maxSpeed="0.03842485619577801" /><vType id="vType_truck_5.436133609458569" accel="1.0" decel="5.0" sigma="0.0" length="8" maxSpeed="1.5100371137384914" /><vType id="vType_car_6.107933280883211" accel="1.0" decel="5.0" sigma="0.0" length="4.5" maxSpeed="1.6966481335786696" /><vType id="vType_car_33.50260235317256" accel="1.0" decel="5.0" sigma="0.0" length="4.5" maxSpeed="9.306278431436823" /><vType id="vType_car_2.6440182283398954" accel="1.0" decel="5.0" sigma="0.0" length="4.5" maxSpeed="0.7344495078721932" /><vType id="vType_car_8.08068167084237" accel="1.0" decel="5.0" sigma="0.0" length="4.5" maxSpeed="2.244633797456214" /><vType id="vType_car_43.046206340387656" accel="1.0" decel="5.0" sigma="0.0" length="4.5" maxSpeed="11.957279538996572" /><vType id="vType_car_18.783083770226455" accel="1.0" decel="5.0" sigma="0.0" length="4.5" maxSpeed="5.217523269507349" /><vType id="vType_car_9.347612112271463" accel="1.0" decel="5.0" sigma="0.0" length="4.5" maxSpeed="2.5965589200754065" /><vType id="vType_car_10.389671564364273" accel="1.0" decel="5.0" sigma="0.0" length="4.5" maxSpeed="2.8860198789900755" /><vType id="vType_car_3.3395691225629927" accel="1.0" decel="5.0" sigma="0.0" length="4.5" maxSpeed="0.9276580896008313" /><vType id="vType_car_62.288770776762576" accel="1.0" decel="5.0" sigma="0.0" length="4.5" maxSpeed="17.302436326878492" /><vType id="vType_car_7.873777583961858" accel="1.0" decel="5.0" sigma="0.0" length="4.5" maxSpeed="2.187160439989405" /><vType id="vType_car_6.100832238223228" accel="1.0" decel="5.0" sigma="0.0" length="4.5" maxSpeed="1.6946756217286745" /><vType id="vType_truck_5.577072302947763" accel="1.0" decel="5.0" sigma="0.0" length="8" maxSpeed="1.549186750818823" /><vType id="vType_car_6.283384587192804" accel="1.0" decel="5.0" sigma="0.0" length="4.5" maxSpeed="1.7453846075535564" /><vType id="vType_car_40.69492978860179" accel="1.0" decel="5.0" sigma="0.0" length="4.5" maxSpeed="11.304147163500497" /><vType id="vType_car_21.04314301567974" accel="1.0" decel="5.0" sigma="0.0" length="4.5" maxSpeed="5.845317504355483" /><vType id="vType_car_2.759703679559759" accel="1.0" decel="5.0" sigma="0.0" length="4.5" maxSpeed="0.7665843554332664" /><vType id="vType_car_14.106894591547347" accel="1.0" decel="5.0" sigma="0.0" length="4.5" maxSpeed="3.918581830985374" /><vType id="vType_car_8.351371835435957" accel="1.0" decel="5.0" sigma="0.0" length="4.5" maxSpeed="2.3198255098433216" /><vType id="vType_car_8.579737407227647" accel="1.0" decel="5.0" sigma="0.0" length="4.5" maxSpeed="2.3832603908965684" /><vType id="vType_car_13.124476006804885" accel="1.0" decel="5.0" sigma="0.0" length="4.5" maxSpeed="3.6456877796680236" /><vType id="vType_car_9.124210678428836" accel="1.0" decel="5.0" sigma="0.0" length="4.5" maxSpeed="2.534502966230232" /><vType id="vType_car_7.823628381316726" accel="1.0" decel="5.0" sigma="0.0" length="4.5" maxSpeed="2.173230105921313" /><vType id="vType_car_8.264872040243347" accel="1.0" decel="5.0" sigma="0.0" length="4.5" maxSpeed="2.2957977889564853" /><vType id="vType_car_16.649488723427563" accel="1.0" decel="5.0" sigma="0.0" length="4.5" maxSpeed="4.624857978729879" /><vType id="vType_car_1.8991280573861278" accel="1.0" decel="5.0" sigma="0.0" length="4.5" maxSpeed="0.5275355714961466" /><vType id="vType_car_6.37109196315494" accel="1.0" decel="5.0" sigma="0.0" length="4.5" maxSpeed="1.7697477675430386" /><vType id="vType_car_27.924858229566404" accel="1.0" decel="5.0" sigma="0.0" length="4.5" maxSpeed="7.756905063768445" /><vType id="vType_car_3.5978463816932638" accel="1.0" decel="5.0" sigma="0.0" length="4.5" maxSpeed="0.9994017726925732" /><vType id="vType_car_1.9366127522672119" accel="1.0" decel="5.0" sigma="0.0" length="4.5" maxSpeed="0.5379479867408922" /><vType id="vType_car_22.30495881060015" accel="1.0" decel="5.0" sigma="0.0" length="4.5" maxSpeed="6.195821891833376" /><vType id="vType_car_35.07482217434854" accel="1.0" decel="5.0" sigma="0.0" length="4.5" maxSpeed="9.743006159541261" /><vType id="vType_car_21.412582665894373" accel="1.0" decel="5.0" sigma="0.0" length="4.5" maxSpeed="5.947939629415104" /><vType id="vType_car_10.647620788869999" accel="1.0" decel="5.0" sigma="0.0" length="4.5" maxSpeed="2.9576724413527775" /><vType id="vType_car_10.307108042970937" accel="1.0" decel="5.0" sigma="0.0" length="4.5" maxSpeed="2.8630855674919267" /><vType id="vType_car_48.05096315645866" accel="1.0" decel="5.0" sigma="0.0" length="4.5" maxSpeed="13.34748976568296" /><vType id="vType_car_1.8646004046747109" accel="1.0" decel="5.0" sigma="0.0" length="4.5" maxSpeed="0.5179445568540864" /><vType id="vType_car_5.86427690094993" accel="1.0" decel="5.0" sigma="0.0" length="4.5" maxSpeed="1.628965805819425" /><vType id="vType_car_47.82447672443558" accel="1.0" decel="5.0" sigma="0.0" length="4.5" maxSpeed="13.284576867898771" /><vType id="vType_car_3.099173551678873" accel="1.0" decel="5.0" sigma="0.0" length="4.5" maxSpeed="0.8608815421330203" /><vType id="vType_car_48.047688925302154" accel="1.0" decel="5.0" sigma="0.0" length="4.5" maxSpeed="13.346580257028375" /><vType id="vType_car_2.0749422345720125" accel="1.0" decel="5.0" sigma="0.0" length="4.5" maxSpeed="0.5763728429366701" /><vType id="vType_truck_10.628727016255606" accel="1.0" decel="5.0" sigma="0.0" length="8" maxSpeed="2.9524241711821126" /><vType id="vType_car_3.2487045528205156" accel="1.0" decel="5.0" sigma="0.0" length="4.5" maxSpeed="0.9024179313390321" /><vType id="vType_car_12.074088732251328" accel="1.0" decel="5.0" sigma="0.0" length="4.5" maxSpeed="3.3539135367364796" /><vType id="vType_car_16.326353444394105" accel="1.0" decel="5.0" sigma="0.0" length="4.5" maxSpeed="4.535098178998362" /><vType id="vType_car_19.427231428376306" accel="1.0" decel="5.0" sigma="0.0" length="4.5" maxSpeed="5.396453174548974" /><vType id="vType_car_11.827211868861276" accel="1.0" decel="5.0" sigma="0.0" length="4.5" maxSpeed="3.2853366302392435" /><vType id="vType_car_17.168066513805908" accel="1.0" decel="5.0" sigma="0.0" length="4.5" maxSpeed="4.768907364946085" /><vType id="vType_car_16.526759796833144" accel="1.0" decel="5.0" sigma="0.0" length="4.5" maxSpeed="4.590766610231428" /><vType id="vType_car_3.3852178975477947" accel="1.0" decel="5.0" sigma="0.0" length="4.5" maxSpeed="0.9403383048743874" /><vType id="vType_car_11.427101512680425" accel="1.0" decel="5.0" sigma="0.0" length="4.5" maxSpeed="3.174194864633451" /><vType id="vType_car_4.098090750681675" accel="1.0" decel="5.0" sigma="0.0" length="4.5" maxSpeed="1.138358541856021" /><vType id="vType_car_19.803682291373747" accel="1.0" decel="5.0" sigma="0.0" length="4.5" maxSpeed="5.501022858714929" /><vType id="vType_car_12.369655191242057" accel="1.0" decel="5.0" sigma="0.0" length="4.5" maxSpeed="3.436015330900571" /><vType id="vType_car_18.915881652741803" accel="1.0" decel="5.0" sigma="0.0" length="4.5" maxSpeed="5.254411570206056" /><vType id="vType_car_4.399758638608049" accel="1.0" decel="5.0" sigma="0.0" length="4.5" maxSpeed="1.2221551773911248" /><vType id="vType_car_13.801050796307866" accel="1.0" decel="5.0" sigma="0.0" length="4.5" maxSpeed="3.8336252211966295" /><vType id="vType_car_4.9892021510891995" accel="1.0" decel="5.0" sigma="0.0" length="4.5" maxSpeed="1.3858894864136666" /><vType id="vType_car_20.992162826248574" accel="1.0" decel="5.0" sigma="0.0" length="4.5" maxSpeed="5.831156340624604" /><vType id="vType_car_2.937322450956116" accel="1.0" decel="5.0" sigma="0.0" length="4.5" maxSpeed="0.8159229030433656" /><vType id="vType_car_24.04977290376002" accel="1.0" decel="5.0" sigma="0.0" length="4.5" maxSpeed="6.680492473266671" /><vType id="vType_car_22.85452688041543" accel="1.0" decel="5.0" sigma="0.0" length="4.5" maxSpeed="6.348479689004286" /><vType id="vType_bus_16.361670467524565" accel="1.0" decel="5.0" sigma="0.0" length="13" maxSpeed="4.544908463201268" /><vType id="vType_car_23.35079583709649" accel="1.0" decel="5.0" sigma="0.0" length="4.5" maxSpeed="6.486332176971247" /><vType id="vType_car_34.441786669613805" accel="1.0" decel="5.0" sigma="0.0" length="4.5" maxSpeed="9.567162963781612" /><vType id="vType_car_26.890799499829736" accel="1.0" decel="5.0" sigma="0.0" length="4.5" maxSpeed="7.469666527730482" /><vType id="vType_car_14.676202521681565" accel="1.0" decel="5.0" sigma="0.0" length="4.5" maxSpeed="4.076722922689323" /><vType id="vType_car_18.352728354958373" accel="1.0" decel="5.0" sigma="0.0" length="4.5" maxSpeed="5.097980098599548" /><vType id="vType_car_23.22932256822239" accel="1.0" decel="5.0" sigma="0.0" length="4.5" maxSpeed="6.452589602283997" /><vType id="vType_car_10.372177445704516" accel="1.0" decel="5.0" sigma="0.0" length="4.5" maxSpeed="2.8811604015845877" /><vType id="vType_car_24.215921128335168" accel="1.0" decel="5.0" sigma="0.0" length="4.5" maxSpeed="6.72664475787088" /><vType id="vType_car_2.8559286974136024" accel="1.0" decel="5.0" sigma="0.0" length="4.5" maxSpeed="0.793313527059334" /><vType id="vType_car_25.484083548079866" accel="1.0" decel="5.0" sigma="0.0" length="4.5" maxSpeed="7.0789120966888515" /><vType id="vType_car_19.308300063841635" accel="1.0" decel="5.0" sigma="0.0" length="4.5" maxSpeed="5.3634166844004545" /><vType id="vType_car_30.492064933914534" accel="1.0" decel="5.0" sigma="0.0" length="4.5" maxSpeed="8.470018037198482" /><vType id="vType_car_26.476826617356274" accel="1.0" decel="5.0" sigma="0.0" length="4.5" maxSpeed="7.354674060376743" /><vType id="vType_car_2.1517919469635687" accel="1.0" decel="5.0" sigma="0.0" length="4.5" maxSpeed="0.5977199852676579" /><vType id="vType_car_14.447912017479393" accel="1.0" decel="5.0" sigma="0.0" length="4.5" maxSpeed="4.013308893744275" /><vType id="vType_car_2.670503606268347" accel="1.0" decel="5.0" sigma="0.0" length="4.5" maxSpeed="0.741806557296763" /><vType id="vType_car_29.840391787921476" accel="1.0" decel="5.0" sigma="0.0" length="4.5" maxSpeed="8.288997718867076" /><vType id="vType_car_12.614230447092563" accel="1.0" decel="5.0" sigma="0.0" length="4.5" maxSpeed="3.5039529019701563" /><vType id="vType_car_20.284637328305816" accel="1.0" decel="5.0" sigma="0.0" length="4.5" maxSpeed="5.634621480084949" /><vType id="vType_car_1.8443930973973446" accel="1.0" decel="5.0" sigma="0.0" length="4.5" maxSpeed="0.5123314159437068" /><vType id="vType_car_15.663079292625964" accel="1.0" decel="5.0" sigma="0.0" length="4.5" maxSpeed="4.350855359062768" /><vType id="vType_car_2.1261753761663833" accel="1.0" decel="5.0" sigma="0.0" length="4.5" maxSpeed="0.5906042711573287" /><vType id="vType_car_47.11718006127431" accel="1.0" decel="5.0" sigma="0.0" length="4.5" maxSpeed="13.088105572576197" /><vType id="vType_car_5.498607328307801" accel="1.0" decel="5.0" sigma="0.0" length="4.5" maxSpeed="1.5273909245299446" /><vType id="vType_car_20.293383285252315" accel="1.0" decel="5.0" sigma="0.0" length="4.5" maxSpeed="5.637050912570087" /><vType id="vType_car_3.0807061790838883" accel="1.0" decel="5.0" sigma="0.0" length="4.5" maxSpeed="0.8557517164121912" /><vType id="vType_car_3.0709774074734257" accel="1.0" decel="5.0" sigma="0.0" length="4.5" maxSpeed="0.8530492798537294" /><vType id="vType_car_4.11526154797769" accel="1.0" decel="5.0" sigma="0.0" length="4.5" maxSpeed="1.1431282077715805" /><vType id="vType_car_22.641913723118066" accel="1.0" decel="5.0" sigma="0.0" length="4.5" maxSpeed="6.2894204786439065" /><vType id="vType_car_4.011666259024551" accel="1.0" decel="5.0" sigma="0.0" length="4.5" maxSpeed="1.114351738617931" /><vType id="vType_car_7.703921786659579" accel="1.0" decel="5.0" sigma="0.0" length="4.5" maxSpeed="2.139978274072105" /><vType id="vType_car_3.1393477601090516" accel="1.0" decel="5.0" sigma="0.0" length="4.5" maxSpeed="0.8720410444747365" /><vType id="vType_car_23.978296694156825" accel="1.0" decel="5.0" sigma="0.0" length="4.5" maxSpeed="6.660637970599118" /><vType id="vType_car_25.86065200769146" accel="1.0" decel="5.0" sigma="0.0" length="4.5" maxSpeed="7.183514446580961" /><vType id="vType_car_24.432208119279142" accel="1.0" decel="5.0" sigma="0.0" length="4.5" maxSpeed="6.78672447757754" /><vType id="vType_car_4.670206956904052" accel="1.0" decel="5.0" sigma="0.0" length="4.5" maxSpeed="1.2972797102511255" /><vType id="vType_car_2.389327421628378" accel="1.0" decel="5.0" sigma="0.0" length="4.5" maxSpeed="0.6637020615634384" /><vType id="vType_car_55.449329275425065" accel="1.0" decel="5.0" sigma="0.0" length="4.5" maxSpeed="15.402591465395851" /><vType id="vType_car_15.553994969471546" accel="1.0" decel="5.0" sigma="0.0" length="4.5" maxSpeed="4.320554158186541" /><vType id="vType_car_27.894441028209652" accel="1.0" decel="5.0" sigma="0.0" length="4.5" maxSpeed="7.748455841169347" /><vType id="vType_car_13.319204324614454" accel="1.0" decel="5.0" sigma="0.0" length="4.5" maxSpeed="3.6997789790595705" /><vType id="vType_car_4.92874048381989" accel="1.0" decel="5.0" sigma="0.0" length="4.5" maxSpeed="1.3690945788388584" /><vType id="vType_car_7.782180967189514" accel="1.0" decel="5.0" sigma="0.0" length="4.5" maxSpeed="2.1617169353304204" /><vType id="vType_car_18.008831206642398" accel="1.0" decel="5.0" sigma="0.0" length="4.5" maxSpeed="5.002453112956221" /><vType id="vType_car_3.764745275113705" accel="1.0" decel="5.0" sigma="0.0" length="4.5" maxSpeed="1.0457625764204737" /><vType id="vType_car_15.825301163833975" accel="1.0" decel="5.0" sigma="0.0" length="4.5" maxSpeed="4.395916989953882" /><vType id="vType_car_8.75841869257615" accel="1.0" decel="5.0" sigma="0.0" length="4.5" maxSpeed="2.4328940812711526" /><vType id="vType_car_7.649495096318837" accel="1.0" decel="5.0" sigma="0.0" length="4.5" maxSpeed="2.1248597489774546" /><vType id="vType_car_6.186282514517781" accel="1.0" decel="5.0" sigma="0.0" length="4.5" maxSpeed="1.7184118095882723" /><route id="route_north_to_east" edges="north_to_center center_to_east" /><route id="route_north_to_south" edges="north_to_center center_to_south" /><route id="route_north_to_west" edges="north_to_center center_to_west" /><route id="route_east_to_west" edges="east_to_center center_to_west" /><route id="route_east_to_south" edges="east_to_center center_to_south" /><route id="route_east_to_north" edges="east_to_center center_to_north" /><route id="route_south_to_west" edges="south_to_center center_to_west" /><route id="route_south_to_north" edges="south_to_center center_to_north" /><route id="route_south_to_east" edges="south_to_center center_to_east" /><route id="route_west_to_south" edges="west_to_center center_to_south" /><route id="route_west_to_north" edges="west_to_center center_to_north" /><route id="route_west_to_east" edges="west_to_center center_to_east" /><vehicle id="veh629" type="vType_car_9.259685196687869" route="route_south_to_north" depart="0.05" /><vehicle id="veh636" type="vType_car_12.644369844189589" route="route_north_to_south" depart="0.05" /><vehicle id="veh655" type="vType_car_15.101721113919027" route="route_north_to_south" depart="0.05" /><vehicle id="veh661" type="vType_car_15.2456469118258" route="route_north_to_south" depart="0.05" /><vehicle id="veh686" type="vType_car_9.903659617726372" route="route_south_to_north" depart="0.05" /><vehicle id="veh693" type="vType_car_10.206188215589144" route="route_north_to_south" depart="0.05" /><vehicle id="veh706" type="vType_car_14.54417015622951" route="route_north_to_south" depart="0.05" /><vehicle id="veh710" type="vType_car_7.35149654994652" route="route_west_to_north" depart="0.05" /><vehicle id="veh725" type="vType_car_10.263648282487221" route="route_east_to_north" depart="0.05" /><vehicle id="veh721" type="vType_car_11.442144015887973" route="route_east_to_north" depart="0.05" /><vehicle id="veh734" type="vType_car_9.057035909539582" route="route_south_to_east" depart="0.05" /><vehicle id="veh739" type="vType_car_53.62369082629405" route="route_west_to_east" depart="0.68" /><vehicle id="veh757" type="vType_car_9.347612112271463" route="route_east_to_north" depart="5.83" /><vehicle id="veh768" type="vType_car_40.69492978860179" route="route_east_to_west" depart="7.74" /><vehicle id="veh769" type="vType_car_21.04314301567974" route="route_east_to_west" depart="9.97" /><vehicle id="veh772" type="vType_car_8.351371835435957" route="route_west_to_north" depart="11.84" /><vehicle id="veh773" type="vType_car_8.579737407227647" route="route_east_to_north" depart="12.16" /><vehicle id="veh776" type="vType_car_13.124476006804885" route="route_west_to_east" depart="13.80" /><vehicle id="veh793" type="vType_car_21.412582665894373" route="route_south_to_east" depart="20.22" /><vehicle id="veh794" type="vType_car_10.647620788869999" route="route_east_to_north" depart="20.22" /><vehicle id="veh796" type="vType_car_48.05096315645866" route="route_east_to_west" depart="21.68" /><vehicle id="veh801" type="vType_car_47.82447672443558" route="route_east_to_west" depart="25.96" /><vehicle id="veh808" type="vType_car_48.047688925302154" route="route_east_to_west" depart="33.20" /><vehicle id="veh814" type="vType_truck_10.628727016255606" route="route_west_to_east" depart="37.71" /><vehicle id="veh819" type="vType_car_12.074088732251328" route="route_north_to_east" depart="40.03" /><vehicle id="veh821" type="vType_car_16.326353444394105" route="route_north_to_east" depart="40.72" /><vehicle id="veh824" type="vType_car_19.427231428376306" route="route_north_to_south" depart="43.45" /><vehicle id="veh826" type="vType_car_11.827211868861276" route="route_north_to_west" depart="45.63" /><vehicle id="veh827" type="vType_car_17.168066513805908" route="route_north_to_south" depart="46.50" /><vehicle id="veh828" type="vType_car_16.526759796833144" route="route_north_to_south" depart="47.00" /><vehicle id="veh830" type="vType_car_11.427101512680425" route="route_north_to_west" depart="49.92" /><vehicle id="veh833" type="vType_car_19.803682291373747" route="route_north_to_south" depart="52.74" /><vehicle id="veh834" type="vType_car_12.369655191242057" route="route_north_to_west" depart="53.60" /><vehicle id="veh835" type="vType_car_18.915881652741803" route="route_north_to_south" depart="55.15" /><vehicle id="veh837" type="vType_car_13.801050796307866" route="route_west_to_east" depart="55.38" /><vehicle id="veh841" type="vType_car_20.992162826248574" route="route_north_to_south" depart="59.12" /><vehicle id="veh844" type="vType_car_24.04977290376002" route="route_south_to_north" depart="63.94" /><vehicle id="veh845" type="vType_car_22.85452688041543" route="route_south_to_north" depart="64.63" /><vehicle id="veh846" type="vType_bus_16.361670467524565" route="route_north_to_west" depart="67.31" /><vehicle id="veh848" type="vType_car_23.35079583709649" route="route_south_to_north" depart="69.54" /><vehicle id="veh849" type="vType_car_34.441786669613805" route="route_south_to_north" depart="70.59" /><vehicle id="veh850" type="vType_car_26.890799499829736" route="route_north_to_south" depart="70.68" /><vehicle id="veh854" type="vType_car_18.352728354958373" route="route_south_to_east" depart="72.37" /><vehicle id="veh855" type="vType_car_23.22932256822239" route="route_south_to_north" depart="73.19" /><vehicle id="veh856" type="vType_car_10.372177445704516" route="route_north_to_east" depart="73.51" /><vehicle id="veh857" type="vType_car_24.215921128335168" route="route_south_to_north" depart="73.64" /><vehicle id="veh859" type="vType_car_25.484083548079866" route="route_south_to_north" depart="75.88" /><vehicle id="veh861" type="vType_car_19.308300063841635" route="route_north_to_west" depart="78.56" /><vehicle id="veh862" type="vType_car_30.492064933914534" route="route_north_to_south" depart="79.84" /><vehicle id="veh863" type="vType_car_26.476826617356274" route="route_south_to_north" depart="80.70" /><vehicle id="veh865" type="vType_car_14.447912017479393" route="route_north_to_west" depart="82.57" /><vehicle id="veh869" type="vType_car_29.840391787921476" route="route_south_to_north" depart="84.16" /><vehicle id="veh870" type="vType_car_12.614230447092563" route="route_south_to_east" depart="84.98" /><vehicle id="veh872" type="vType_car_20.284637328305816" route="route_north_to_south" depart="86.30" /><vehicle id="veh875" type="vType_car_15.663079292625964" route="route_north_to_west" depart="90.59" /><vehicle id="veh880" type="vType_car_47.11718006127431" route="route_south_to_north" depart="97.55" /><vehicle id="veh891" type="vType_car_22.641913723118066" route="route_west_to_south" depart="107.98" /></routes>