<?xml version='1.0' encoding='utf-8'?>
<routes><vType id="vType_car_4.255495954229278" accel="1.0" decel="5.0" sigma="0.0" length="4.5" maxSpeed="1.1820822095081327" /><vType id="vType_car_12.362165134965876" accel="1.0" decel="5.0" sigma="0.0" length="4.5" maxSpeed="3.433934759712743" /><vType id="vType_car_4.172176480465598" accel="1.0" decel="5.0" sigma="0.0" length="4.5" maxSpeed="1.1589379112404439" /><vType id="vType_car_12.155074055938828" accel="1.0" decel="5.0" sigma="0.0" length="4.5" maxSpeed="3.3764094599830075" /><vType id="vType_car_8.874564133150468" accel="1.0" decel="5.0" sigma="0.0" length="4.5" maxSpeed="2.465156703652908" /><vType id="vType_car_12.660427819251767" accel="1.0" decel="5.0" sigma="0.0" length="4.5" maxSpeed="3.516785505347713" /><vType id="vType_car_53.13802692547471" accel="1.0" decel="5.0" sigma="0.0" length="4.5" maxSpeed="14.760563034854087" /><vType id="vType_car_13.910972126523838" accel="1.0" decel="5.0" sigma="0.0" length="4.5" maxSpeed="3.8641589240343994" /><vType id="vType_car_9.605734763164408" accel="1.0" decel="5.0" sigma="0.0" length="4.5" maxSpeed="2.6682596564345578" /><vType id="vType_car_9.509053066756977" accel="1.0" decel="5.0" sigma="0.0" length="4.5" maxSpeed="2.641403629654716" /><vType id="vType_car_36.65983752906434" accel="1.0" decel="5.0" sigma="0.0" length="4.5" maxSpeed="10.183288202517872" /><vType id="vType_car_57.39417050579207" accel="1.0" decel="5.0" sigma="0.0" length="4.5" maxSpeed="15.942825140497796" /><vType id="vType_car_11.46310005815697" accel="1.0" decel="5.0" sigma="0.0" length="4.5" maxSpeed="3.184194460599158" /><vType id="vType_car_27.96491256123792" accel="1.0" decel="5.0" sigma="0.0" length="4.5" maxSpeed="7.768031267010533" /><vType id="vType_car_38.62492683136369" accel="1.0" decel="5.0" sigma="0.0" length="4.5" maxSpeed="10.72914634204547" /><vType id="vType_car_3.918855381600422" accel="1.0" decel="5.0" sigma="0.0" length="4.5" maxSpeed="1.0885709393334506" /><vType id="vType_car_3.758261789324782" accel="1.0" decel="5.0" sigma="0.0" length="4.5" maxSpeed="1.0439616081457728" /><vType id="vType_car_11.524080675182812" accel="1.0" decel="5.0" sigma="0.0" length="4.5" maxSpeed="3.2011335208841145" /><vType id="vType_car_3.6815683981070295" accel="1.0" decel="5.0" sigma="0.0" length="4.5" maxSpeed="1.0226578883630637" /><vType id="vType_car_9.601584564624877" accel="1.0" decel="5.0" sigma="0.0" length="4.5" maxSpeed="2.66710682350691" /><vType id="vType_car_10.40860049080051" accel="1.0" decel="5.0" sigma="0.0" length="4.5" maxSpeed="2.8912779141112526" /><vType id="vType_car_4.010258008794551" accel="1.0" decel="5.0" sigma="0.0" length="4.5" maxSpeed="1.1139605579984864" /><vType id="vType_car_28.389343198479004" accel="1.0" decel="5.0" sigma="0.0" length="4.5" maxSpeed="7.885928666244167" /><vType id="vType_car_3.7669950690996696" accel="1.0" decel="5.0" sigma="0.0" length="4.5" maxSpeed="1.0463875191943526" /><vType id="vType_car_2.214495727862737" accel="1.0" decel="5.0" sigma="0.0" length="4.5" maxSpeed="0.6151377021840936" /><vType id="vType_car_13.206043810642093" accel="1.0" decel="5.0" sigma="0.0" length="4.5" maxSpeed="3.6683455029561367" /><vType id="vType_car_3.0448889611310044" accel="1.0" decel="5.0" sigma="0.0" length="4.5" maxSpeed="0.8458024892030568" /><vType id="vType_car_46.37201016421499" accel="1.0" decel="5.0" sigma="0.0" length="4.5" maxSpeed="12.881113934504164" /><vType id="vType_car_16.866104704479856" accel="1.0" decel="5.0" sigma="0.0" length="4.5" maxSpeed="4.685029084577738" /><vType id="vType_car_4.795051028717922" accel="1.0" decel="5.0" sigma="0.0" length="4.5" maxSpeed="1.3319586190883117" /><vType id="vType_bus_49.26663218523892" accel="1.0" decel="5.0" sigma="0.0" length="13" maxSpeed="13.68517560701081" /><vType id="vType_truck_8.787401075636652" accel="1.0" decel="5.0" sigma="0.0" length="8" maxSpeed="2.440944743232403" /><vType id="vType_car_19.401342951661253" accel="1.0" decel="5.0" sigma="0.0" length="4.5" maxSpeed="5.389261931017015" /><vType id="vType_car_12.543215854680978" accel="1.0" decel="5.0" sigma="0.0" length="4.5" maxSpeed="3.4842266263002717" /><vType id="vType_car_19.467111656118135" accel="1.0" decel="5.0" sigma="0.0" length="4.5" maxSpeed="5.407531015588371" /><vType id="vType_car_18.20362174468989" accel="1.0" decel="5.0" sigma="0.0" length="4.5" maxSpeed="5.056561595747191" /><vType id="vType_car_19.036960983750085" accel="1.0" decel="5.0" sigma="0.0" length="4.5" maxSpeed="5.288044717708357" /><vType id="vType_car_18.977138068619674" accel="1.0" decel="5.0" sigma="0.0" length="4.5" maxSpeed="5.271427241283242" /><vType id="vType_car_8.993567776368629" accel="1.0" decel="5.0" sigma="0.0" length="4.5" maxSpeed="2.498213271213508" /><vType id="vType_car_21.67434725474874" accel="1.0" decel="5.0" sigma="0.0" length="4.5" maxSpeed="6.0206520152079825" /><vType id="vType_car_19.28020979398418" accel="1.0" decel="5.0" sigma="0.0" length="4.5" maxSpeed="5.355613831662272" /><vType id="vType_car_53.1406192970285" accel="1.0" decel="5.0" sigma="0.0" length="4.5" maxSpeed="14.761283138063472" /><vType id="vType_car_46.14978722086161" accel="1.0" decel="5.0" sigma="0.0" length="4.5" maxSpeed="12.819385339128225" /><vType id="vType_car_20.03752334997423" accel="1.0" decel="5.0" sigma="0.0" length="4.5" maxSpeed="5.565978708326175" /><vType id="vType_car_4.6398731926209456" accel="1.0" decel="5.0" sigma="0.0" length="4.5" maxSpeed="1.2888536646169293" /><vType id="vType_car_13.946923362731134" accel="1.0" decel="5.0" sigma="0.0" length="4.5" maxSpeed="3.874145378536426" /><vType id="vType_car_3.9175991137964754" accel="1.0" decel="5.0" sigma="0.0" length="4.5" maxSpeed="1.0882219760545764" /><vType id="vType_car_4.161412659243512" accel="1.0" decel="5.0" sigma="0.0" length="4.5" maxSpeed="1.1559479609009755" /><vType id="vType_car_14.807349865984747" accel="1.0" decel="5.0" sigma="0.0" length="4.5" maxSpeed="4.113152740551318" /><vType id="vType_car_4.2985738895173515" accel="1.0" decel="5.0" sigma="0.0" length="4.5" maxSpeed="1.1940483026437088" /><vType id="vType_car_12.319021895322217" accel="1.0" decel="5.0" sigma="0.0" length="4.5" maxSpeed="3.4219505264783936" /><vType id="vType_car_4.4335513454601765" accel="1.0" decel="5.0" sigma="0.0" length="4.5" maxSpeed="1.2315420404056046" /><vType id="vType_car_8.382171856733502" accel="1.0" decel="5.0" sigma="0.0" length="4.5" maxSpeed="2.3283810713148614" /><vType id="vType_car_16.86367707449546" accel="1.0" decel="5.0" sigma="0.0" length="4.5" maxSpeed="4.6843547429154055" /><vType id="vType_car_17.78500894556647" accel="1.0" decel="5.0" sigma="0.0" length="4.5" maxSpeed="4.940280262657353" /><vType id="vType_car_2.1571877556232706" accel="1.0" decel="5.0" sigma="0.0" length="4.5" maxSpeed="0.5992188210064641" /><vType id="vType_car_23.783783765124408" accel="1.0" decel="5.0" sigma="0.0" length="4.5" maxSpeed="6.606606601423446" /><vType id="vType_car_20.761095421363567" accel="1.0" decel="5.0" sigma="0.0" length="4.5" maxSpeed="5.766970950378768" /><vType id="vType_car_13.404654429841381" accel="1.0" decel="5.0" sigma="0.0" length="4.5" maxSpeed="3.7235151194003837" /><vType id="vType_car_23.611521231448833" accel="1.0" decel="5.0" sigma="0.0" length="4.5" maxSpeed="6.558755897624676" /><vType id="vType_truck_27.232606632834713" accel="1.0" decel="5.0" sigma="0.0" length="8" maxSpeed="7.564612953565198" /><vType id="vType_car_14.282045136743578" accel="1.0" decel="5.0" sigma="0.0" length="4.5" maxSpeed="3.9672347602065496" /><vType id="vType_car_35.05748259495923" accel="1.0" decel="5.0" sigma="0.0" length="4.5" maxSpeed="9.738189609710897" /><vType id="vType_car_18.373648260384023" accel="1.0" decel="5.0" sigma="0.0" length="4.5" maxSpeed="5.1037911834400065" /><vType id="vType_car_38.40725128240056" accel="1.0" decel="5.0" sigma="0.0" length="4.5" maxSpeed="10.668680911777933" /><vType id="vType_car_3.1293249764433546" accel="1.0" decel="5.0" sigma="0.0" length="4.5" maxSpeed="0.8692569379009318" /><vType id="vType_car_31.882277657619127" accel="1.0" decel="5.0" sigma="0.0" length="4.5" maxSpeed="8.856188238227535" /><vType id="vType_car_44.41054629844229" accel="1.0" decel="5.0" sigma="0.0" length="4.5" maxSpeed="12.336262860678413" /><vType id="vType_car_3.5237321294047885" accel="1.0" decel="5.0" sigma="0.0" length="4.5" maxSpeed="0.978814480390219" /><vType id="vType_car_15.130449203983547" accel="1.0" decel="5.0" sigma="0.0" length="4.5" maxSpeed="4.202902556662096" /><vType id="vType_car_5.692799030057257" accel="1.0" decel="5.0" sigma="0.0" length="4.5" maxSpeed="1.5813330639047936" /><vType id="vType_car_39.65287007134409" accel="1.0" decel="5.0" sigma="0.0" length="4.5" maxSpeed="11.014686130928913" /><vType id="vType_car_4.854913517993246" accel="1.0" decel="5.0" sigma="0.0" length="4.5" maxSpeed="1.3485870883314572" /><vType id="vType_car_3.0539011788174832" accel="1.0" decel="5.0" sigma="0.0" length="4.5" maxSpeed="0.8483058830048564" /><vType id="vType_car_3.925724417030025" accel="1.0" decel="5.0" sigma="0.0" length="4.5" maxSpeed="1.0904790047305624" /><vType id="vType_car_3.557773162080443" accel="1.0" decel="5.0" sigma="0.0" length="4.5" maxSpeed="0.9882703228001231" /><vType id="vType_car_17.492558194904976" accel="1.0" decel="5.0" sigma="0.0" length="4.5" maxSpeed="4.85904394302916" /><vType id="vType_car_44.16477113498019" accel="1.0" decel="5.0" sigma="0.0" length="4.5" maxSpeed="12.267991981938941" /><vType id="vType_car_14.391455102049115" accel="1.0" decel="5.0" sigma="0.0" length="4.5" maxSpeed="3.997626417235865" /><vType id="vType_car_17.724087147638727" accel="1.0" decel="5.0" sigma="0.0" length="4.5" maxSpeed="4.923357541010757" /><vType id="vType_car_4.1969901333300035" accel="1.0" decel="5.0" sigma="0.0" length="4.5" maxSpeed="1.1658305925916677" /><vType id="vType_car_19.868730122420512" accel="1.0" decel="5.0" sigma="0.0" length="4.5" maxSpeed="5.519091700672364" /><vType id="vType_car_26.674774276876352" accel="1.0" decel="5.0" sigma="0.0" length="4.5" maxSpeed="7.409659521354542" /><vType id="vType_car_2.5117025752510656" accel="1.0" decel="5.0" sigma="0.0" length="4.5" maxSpeed="0.6976951597919626" /><vType id="vType_car_31.104674226827147" accel="1.0" decel="5.0" sigma="0.0" length="4.5" maxSpeed="8.640187285229763" /><vType id="vType_car_26.321001138438113" accel="1.0" decel="5.0" sigma="0.0" length="4.5" maxSpeed="7.3113892051216975" /><vType id="vType_car_4.461563897735958" accel="1.0" decel="5.0" sigma="0.0" length="4.5" maxSpeed="1.239323304926655" /><vType id="vType_car_34.825642208806144" accel="1.0" decel="5.0" sigma="0.0" length="4.5" maxSpeed="9.673789502446152" /><vType id="vType_car_43.73176866548061" accel="1.0" decel="5.0" sigma="0.0" length="4.5" maxSpeed="12.147713518189057" /><vType id="vType_car_44.0122624620075" accel="1.0" decel="5.0" sigma="0.0" length="4.5" maxSpeed="12.22562846166875" /><vType id="vType_car_15.758609151698387" accel="1.0" decel="5.0" sigma="0.0" length="4.5" maxSpeed="4.37739143102733" /><vType id="vType_car_3.5237321294047907" accel="1.0" decel="5.0" sigma="0.0" length="4.5" maxSpeed="0.9788144803902197" /><vType id="vType_car_2.9070790067589503" accel="1.0" decel="5.0" sigma="0.0" length="4.5" maxSpeed="0.8075219463219306" /><vType id="vType_car_5.554219988588902" accel="1.0" decel="5.0" sigma="0.0" length="4.5" maxSpeed="1.5428388857191395" /><vType id="vType_car_24.433918306398606" accel="1.0" decel="5.0" sigma="0.0" length="4.5" maxSpeed="6.787199529555168" /><vType id="vType_car_69.03359906750369" accel="1.0" decel="5.0" sigma="0.0" length="4.5" maxSpeed="19.175999740973246" /><vType id="vType_car_34.89997242690804" accel="1.0" decel="5.0" sigma="0.0" length="4.5" maxSpeed="9.694436785252234" /><vType id="vType_car_4.728647477875016" accel="1.0" decel="5.0" sigma="0.0" length="4.5" maxSpeed="1.3135131882986155" /><vType id="vType_car_13.331666333861001" accel="1.0" decel="5.0" sigma="0.0" length="4.5" maxSpeed="3.7032406482947224" /><route id="route_north_to_east" edges="north_to_center center_to_east" /><route id="route_north_to_south" edges="north_to_center center_to_south" /><route id="route_north_to_west" edges="north_to_center center_to_west" /><route id="route_east_to_west" edges="east_to_center center_to_west" /><route id="route_east_to_south" edges="east_to_center center_to_south" /><route id="route_east_to_north" edges="east_to_center center_to_north" /><route id="route_south_to_west" edges="south_to_center center_to_west" /><route id="route_south_to_north" edges="south_to_center center_to_north" /><route id="route_south_to_east" edges="south_to_center center_to_east" /><route id="route_west_to_south" edges="west_to_center center_to_south" /><route id="route_west_to_north" edges="west_to_center center_to_north" /><route id="route_west_to_east" edges="west_to_center center_to_east" /><vehicle id="veh569" type="vType_car_12.362165134965876" route="route_north_to_south" depart="0.04" /><vehicle id="veh605" type="vType_car_12.155074055938828" route="route_north_to_south" depart="0.04" /><vehicle id="veh638" type="vType_car_12.660427819251767" route="route_east_to_north" depart="0.04" /><vehicle id="veh640" type="vType_car_9.605734763164408" route="route_north_to_east" depart="0.04" /><vehicle id="veh641" type="vType_car_9.509053066756977" route="route_west_to_north" depart="0.04" /><vehicle id="veh647" type="vType_car_57.39417050579207" route="route_west_to_south" depart="0.04" /><vehicle id="veh643" type="vType_car_11.46310005815697" route="route_south_to_east" depart="0.04" /><vehicle id="veh646" type="vType_car_27.96491256123792" route="route_east_to_west" depart="0.04" /><vehicle id="veh651" type="vType_car_38.62492683136369" route="route_west_to_east" depart="0.04" /><vehicle id="veh654" type="vType_car_11.524080675182812" route="route_east_to_north" depart="2.79" /><vehicle id="veh656" type="vType_car_9.601584564624877" route="route_east_to_north" depart="4.08" /><vehicle id="veh657" type="vType_car_10.40860049080051" route="route_east_to_north" depart="6.26" /><vehicle id="veh660" type="vType_car_28.389343198479004" route="route_east_to_west" depart="10.94" /><vehicle id="veh667" type="vType_car_13.206043810642093" route="route_east_to_north" depart="18.31" /><vehicle id="veh669" type="vType_car_46.37201016421499" route="route_east_to_west" depart="19.95" /><vehicle id="veh674" type="vType_bus_49.26663218523892" route="route_east_to_west" depart="25.10" /><vehicle id="veh677" type="vType_car_19.401342951661253" route="route_south_to_west" depart="26.17" /><vehicle id="veh678" type="vType_car_12.543215854680978" route="route_west_to_south" depart="26.21" /><vehicle id="veh680" type="vType_car_19.467111656118135" route="route_east_to_south" depart="27.89" /><vehicle id="veh682" type="vType_car_18.20362174468989" route="route_east_to_south" depart="32.32" /><vehicle id="veh683" type="vType_car_19.036960983750085" route="route_east_to_south" depart="34.47" /><vehicle id="veh684" type="vType_car_18.977138068619674" route="route_east_to_south" depart="36.04" /><vehicle id="veh688" type="vType_car_21.67434725474874" route="route_east_to_south" depart="39.80" /><vehicle id="veh689" type="vType_car_19.28020979398418" route="route_east_to_south" depart="40.44" /><vehicle id="veh690" type="vType_car_53.1406192970285" route="route_east_to_west" depart="41.12" /><vehicle id="veh691" type="vType_car_46.14978722086161" route="route_east_to_west" depart="41.59" /><vehicle id="veh694" type="vType_car_20.03752334997423" route="route_west_to_south" depart="47.24" /><vehicle id="veh699" type="vType_car_13.946923362731134" route="route_south_to_east" depart="50.45" /><vehicle id="veh702" type="vType_car_14.807349865984747" route="route_west_to_east" depart="52.06" /><vehicle id="veh705" type="vType_car_12.319021895322217" route="route_south_to_east" depart="55.28" /><vehicle id="veh707" type="vType_car_8.382171856733502" route="route_north_to_east" depart="57.78" /><vehicle id="veh708" type="vType_car_16.86367707449546" route="route_west_to_east" depart="58.25" /><vehicle id="veh710" type="vType_car_17.78500894556647" route="route_west_to_east" depart="63.18" /><vehicle id="veh713" type="vType_car_23.783783765124408" route="route_north_to_south" depart="63.68" /><vehicle id="veh716" type="vType_car_20.761095421363567" route="route_north_to_west" depart="63.93" /><vehicle id="veh720" type="vType_car_13.404654429841381" route="route_north_to_west" depart="65.69" /><vehicle id="veh721" type="vType_car_23.611521231448833" route="route_south_to_north" depart="65.87" /><vehicle id="veh725" type="vType_truck_27.232606632834713" route="route_south_to_north" depart="68.51" /><vehicle id="veh728" type="vType_car_14.282045136743578" route="route_north_to_west" depart="69.80" /><vehicle id="veh730" type="vType_car_35.05748259495923" route="route_south_to_north" depart="70.01" /><vehicle id="veh734" type="vType_car_18.373648260384023" route="route_west_to_east" depart="73.45" /><vehicle id="veh736" type="vType_car_38.40725128240056" route="route_north_to_south" depart="73.80" /><vehicle id="veh739" type="vType_car_31.882277657619127" route="route_north_to_south" depart="75.84" /><vehicle id="veh740" type="vType_car_44.41054629844229" route="route_south_to_north" depart="76.31" /><vehicle id="veh747" type="vType_car_15.130449203983547" route="route_west_to_north" depart="78.52" /><vehicle id="veh752" type="vType_car_39.65287007134409" route="route_south_to_north" depart="82.14" /><vehicle id="veh762" type="vType_car_17.492558194904976" route="route_south_to_east" depart="94.47" /><vehicle id="veh763" type="vType_car_44.16477113498019" route="route_north_to_south" depart="94.61" /><vehicle id="veh764" type="vType_car_14.391455102049115" route="route_west_to_north" depart="97.51" /><vehicle id="veh765" type="vType_car_17.724087147638727" route="route_west_to_north" depart="104.63" /><vehicle id="veh768" type="vType_car_26.674774276876352" route="route_west_to_east" depart="105.91" /><vehicle id="veh770" type="vType_car_31.104674226827147" route="route_west_to_south" depart="107.06" /><vehicle id="veh772" type="vType_car_26.321001138438113" route="route_west_to_north" depart="109.95" /><vehicle id="veh774" type="vType_car_34.825642208806144" route="route_west_to_east" depart="111.42" /><vehicle id="veh779" type="vType_car_44.0122624620075" route="route_west_to_east" depart="113.74" /></routes>