<?xml version='1.0' encoding='utf-8'?>
<routes><vType id="vType_car_27.9811585267656" accel="1.0" decel="5.0" sigma="0.0" length="4.5" maxSpeed="7.7725440352126665" /><vType id="vType_car_20.938230706574583" accel="1.0" decel="5.0" sigma="0.0" length="4.5" maxSpeed="5.816175196270717" /><vType id="vType_car_7.819874718725076" accel="1.0" decel="5.0" sigma="0.0" length="4.5" maxSpeed="2.1721874218680766" /><vType id="vType_car_12.449929108083555" accel="1.0" decel="5.0" sigma="0.0" length="4.5" maxSpeed="3.4583136411343207" /><vType id="vType_car_5.090659912439881" accel="1.0" decel="5.0" sigma="0.0" length="4.5" maxSpeed="1.4140721978999669" /><vType id="vType_car_8.749851165823422" accel="1.0" decel="5.0" sigma="0.0" length="4.5" maxSpeed="2.4305142127287285" /><vType id="vType_car_9.203561164880906" accel="1.0" decel="5.0" sigma="0.0" length="4.5" maxSpeed="2.5565447680224738" /><vType id="vType_car_11.136211256612988" accel="1.0" decel="5.0" sigma="0.0" length="4.5" maxSpeed="3.09339201572583" /><vType id="vType_truck_32.21469053684913" accel="1.0" decel="5.0" sigma="0.0" length="8" maxSpeed="8.948525149124759" /><vType id="vType_car_9.878587131519414" accel="1.0" decel="5.0" sigma="0.0" length="4.5" maxSpeed="2.744051980977615" /><vType id="vType_bus_18.96949039135955" accel="1.0" decel="5.0" sigma="0.0" length="13" maxSpeed="5.269302886488764" /><vType id="vType_car_43.169668496205524" accel="1.0" decel="5.0" sigma="0.0" length="4.5" maxSpeed="11.991574582279313" /><vType id="vType_car_42.50140266700768" accel="1.0" decel="5.0" sigma="0.0" length="4.5" maxSpeed="11.805945185279912" /><vType id="vType_car_5.125330708160406" accel="1.0" decel="5.0" sigma="0.0" length="4.5" maxSpeed="1.4237029744890015" /><vType id="vType_car_6.437202168019776" accel="1.0" decel="5.0" sigma="0.0" length="4.5" maxSpeed="1.7881117133388267" /><vType id="vType_car_6.66723743876652" accel="1.0" decel="5.0" sigma="0.0" length="4.5" maxSpeed="1.8520103996573667" /><vType id="vType_car_87.62530975136973" accel="1.0" decel="5.0" sigma="0.0" length="4.5" maxSpeed="24.340363819824923" /><vType id="vType_car_35.713679036375794" accel="1.0" decel="5.0" sigma="0.0" length="4.5" maxSpeed="9.920466398993275" /><vType id="vType_car_13.705152752449115" accel="1.0" decel="5.0" sigma="0.0" length="4.5" maxSpeed="3.8069868756803094" /><vType id="vType_car_14.728935514363995" accel="1.0" decel="5.0" sigma="0.0" length="4.5" maxSpeed="4.091370976212221" /><vType id="vType_car_7.2994012339350185" accel="1.0" decel="5.0" sigma="0.0" length="4.5" maxSpeed="2.0276114538708385" /><vType id="vType_car_7.921249210132443" accel="1.0" decel="5.0" sigma="0.0" length="4.5" maxSpeed="2.2003470028145675" /><vType id="vType_car_13.254126272181734" accel="1.0" decel="5.0" sigma="0.0" length="4.5" maxSpeed="3.681701742272704" /><vType id="vType_car_45.3005612529248" accel="1.0" decel="5.0" sigma="0.0" length="4.5" maxSpeed="12.583489236923555" /><vType id="vType_car_5.65832044607068" accel="1.0" decel="5.0" sigma="0.0" length="4.5" maxSpeed="1.5717556794640777" /><vType id="vType_car_11.494701791210383" accel="1.0" decel="5.0" sigma="0.0" length="4.5" maxSpeed="3.192972719780662" /><vType id="vType_car_12.152527989757159" accel="1.0" decel="5.0" sigma="0.0" length="4.5" maxSpeed="3.3757022193769886" /><vType id="vType_car_54.46850255163706" accel="1.0" decel="5.0" sigma="0.0" length="4.5" maxSpeed="15.13013959767696" /><vType id="vType_car_35.17260379552981" accel="1.0" decel="5.0" sigma="0.0" length="4.5" maxSpeed="9.770167720980503" /><vType id="vType_car_42.78391168410489" accel="1.0" decel="5.0" sigma="0.0" length="4.5" maxSpeed="11.884419912251358" /><vType id="vType_car_20.026320384724322" accel="1.0" decel="5.0" sigma="0.0" length="4.5" maxSpeed="5.562866773534534" /><vType id="vType_car_16.081173436133266" accel="1.0" decel="5.0" sigma="0.0" length="4.5" maxSpeed="4.46699262114813" /><vType id="vType_car_41.32492303672303" accel="1.0" decel="5.0" sigma="0.0" length="4.5" maxSpeed="11.47914528797862" /><vType id="vType_car_25.381429387851284" accel="1.0" decel="5.0" sigma="0.0" length="4.5" maxSpeed="7.050397052180912" /><vType id="vType_car_72.56325748902792" accel="1.0" decel="5.0" sigma="0.0" length="4.5" maxSpeed="20.156460413618866" /><vType id="vType_car_80.16326355978634" accel="1.0" decel="5.0" sigma="0.0" length="4.5" maxSpeed="22.26757321105176" /><vType id="vType_car_26.33226543096854" accel="1.0" decel="5.0" sigma="0.0" length="4.5" maxSpeed="7.314518175269039" /><vType id="vType_car_44.38052649655362" accel="1.0" decel="5.0" sigma="0.0" length="4.5" maxSpeed="12.32792402682045" /><vType id="vType_car_12.191519888030207" accel="1.0" decel="5.0" sigma="0.0" length="4.5" maxSpeed="3.386533302230613" /><vType id="vType_car_80.41802659982062" accel="1.0" decel="5.0" sigma="0.0" length="4.5" maxSpeed="22.338340722172394" /><vType id="vType_car_12.187668958799767" accel="1.0" decel="5.0" sigma="0.0" length="4.5" maxSpeed="3.385463599666602" /><vType id="vType_car_20.3308155787196" accel="1.0" decel="5.0" sigma="0.0" length="4.5" maxSpeed="5.647448771866556" /><vType id="vType_car_23.064059369383624" accel="1.0" decel="5.0" sigma="0.0" length="4.5" maxSpeed="6.406683158162117" /><vType id="vType_car_8.02459866184214" accel="1.0" decel="5.0" sigma="0.0" length="4.5" maxSpeed="2.2290551838450385" /><vType id="vType_car_8.497240502504821" accel="1.0" decel="5.0" sigma="0.0" length="4.5" maxSpeed="2.360344584029117" /><vType id="vType_car_14.534487492003267" accel="1.0" decel="5.0" sigma="0.0" length="4.5" maxSpeed="4.037357636667574" /><vType id="vType_car_29.01576131208958" accel="1.0" decel="5.0" sigma="0.0" length="4.5" maxSpeed="8.059933697802661" /><vType id="vType_car_55.9244428487699" accel="1.0" decel="5.0" sigma="0.0" length="4.5" maxSpeed="15.534567457991638" /><vType id="vType_car_47.873713972971245" accel="1.0" decel="5.0" sigma="0.0" length="4.5" maxSpeed="13.298253881380901" /><vType id="vType_car_16.315487449135052" accel="1.0" decel="5.0" sigma="0.0" length="4.5" maxSpeed="4.532079846981959" /><vType id="vType_car_6.547435300355053" accel="1.0" decel="5.0" sigma="0.0" length="4.5" maxSpeed="1.8187320278764036" /><vType id="vType_car_48.45917684595472" accel="1.0" decel="5.0" sigma="0.0" length="4.5" maxSpeed="13.460882457209644" /><vType id="vType_car_55.28696380057841" accel="1.0" decel="5.0" sigma="0.0" length="4.5" maxSpeed="15.357489944605113" /><vType id="vType_car_41.540749759725074" accel="1.0" decel="5.0" sigma="0.0" length="4.5" maxSpeed="11.539097155479187" /><vType id="vType_car_19.19919170731738" accel="1.0" decel="5.0" sigma="0.0" length="4.5" maxSpeed="5.333108807588161" /><vType id="vType_car_38.8826277280852" accel="1.0" decel="5.0" sigma="0.0" length="4.5" maxSpeed="10.80072992446811" /><vType id="vType_car_12.703095297257107" accel="1.0" decel="5.0" sigma="0.0" length="4.5" maxSpeed="3.5286375825714185" /><vType id="vType_car_48.735537857082285" accel="1.0" decel="5.0" sigma="0.0" length="4.5" maxSpeed="13.537649404745078" /><vType id="vType_car_51.69984025151309" accel="1.0" decel="5.0" sigma="0.0" length="4.5" maxSpeed="14.361066736531413" /><vType id="vType_car_36.34278653151243" accel="1.0" decel="5.0" sigma="0.0" length="4.5" maxSpeed="10.095218480975674" /><vType id="vType_car_10.77371268722126" accel="1.0" decel="5.0" sigma="0.0" length="4.5" maxSpeed="2.992697968672572" /><vType id="vType_car_79.12390796912224" accel="1.0" decel="5.0" sigma="0.0" length="4.5" maxSpeed="21.97886332475618" /><vType id="vType_car_34.00080189816677" accel="1.0" decel="5.0" sigma="0.0" length="4.5" maxSpeed="9.444667193935214" /><vType id="vType_car_53.08937079916191" accel="1.0" decel="5.0" sigma="0.0" length="4.5" maxSpeed="14.747047444211642" /><vType id="vType_car_61.27535636395564" accel="1.0" decel="5.0" sigma="0.0" length="4.5" maxSpeed="17.02093232332101" /><vType id="vType_car_36.30907549063837" accel="1.0" decel="5.0" sigma="0.0" length="4.5" maxSpeed="10.085854302955102" /><vType id="vType_car_22.900722641749717" accel="1.0" decel="5.0" sigma="0.0" length="4.5" maxSpeed="6.361311844930476" /><vType id="vType_car_4.626769697431194" accel="1.0" decel="5.0" sigma="0.0" length="4.5" maxSpeed="1.2852138048419983" /><vType id="vType_car_10.499796000543967" accel="1.0" decel="5.0" sigma="0.0" length="4.5" maxSpeed="2.9166100001511017" /><vType id="vType_car_35.73610848656719" accel="1.0" decel="5.0" sigma="0.0" length="4.5" maxSpeed="9.92669680182422" /><vType id="vType_car_21.11593635302497" accel="1.0" decel="5.0" sigma="0.0" length="4.5" maxSpeed="5.865537875840269" /><vType id="vType_car_16.3859720964741" accel="1.0" decel="5.0" sigma="0.0" length="4.5" maxSpeed="4.551658915687249" /><vType id="vType_car_12.50088327591819" accel="1.0" decel="5.0" sigma="0.0" length="4.5" maxSpeed="3.4724675766439415" /><vType id="vType_car_98.7537918081881" accel="1.0" decel="5.0" sigma="0.0" length="4.5" maxSpeed="27.431608835607804" /><vType id="vType_car_55.69089600293243" accel="1.0" decel="5.0" sigma="0.0" length="4.5" maxSpeed="15.469693334147898" /><vType id="vType_car_38.30353392375783" accel="1.0" decel="5.0" sigma="0.0" length="4.5" maxSpeed="10.639870534377176" /><vType id="vType_car_36.59352107861972" accel="1.0" decel="5.0" sigma="0.0" length="4.5" maxSpeed="10.164866966283256" /><vType id="vType_car_52.457872898830935" accel="1.0" decel="5.0" sigma="0.0" length="4.5" maxSpeed="14.57163136078637" /><vType id="vType_car_45.91612657429749" accel="1.0" decel="5.0" sigma="0.0" length="4.5" maxSpeed="12.754479603971525" /><vType id="vType_car_8.741378427705055" accel="1.0" decel="5.0" sigma="0.0" length="4.5" maxSpeed="2.4281606743625153" /><vType id="vType_car_26.47093599043286" accel="1.0" decel="5.0" sigma="0.0" length="4.5" maxSpeed="7.353037775120239" /><vType id="vType_car_14.0684935492081" accel="1.0" decel="5.0" sigma="0.0" length="4.5" maxSpeed="3.9079148747800274" /><vType id="vType_car_19.689040353854796" accel="1.0" decel="5.0" sigma="0.0" length="4.5" maxSpeed="5.469177876070777" /><vType id="vType_car_15.130390805869503" accel="1.0" decel="5.0" sigma="0.0" length="4.5" maxSpeed="4.20288633496375" /><vType id="vType_car_15.473389088744659" accel="1.0" decel="5.0" sigma="0.0" length="4.5" maxSpeed="4.298163635762405" /><vType id="vType_car_8.895799615366359" accel="1.0" decel="5.0" sigma="0.0" length="4.5" maxSpeed="2.4710554487128773" /><vType id="vType_car_22.228288731705398" accel="1.0" decel="5.0" sigma="0.0" length="4.5" maxSpeed="6.174524647695944" /><vType id="vType_car_22.714638022345387" accel="1.0" decel="5.0" sigma="0.0" length="4.5" maxSpeed="6.3096216728737184" /><vType id="vType_car_12.019187458800717" accel="1.0" decel="5.0" sigma="0.0" length="4.5" maxSpeed="3.338663183000199" /><vType id="vType_car_6.784523667130142" accel="1.0" decel="5.0" sigma="0.0" length="4.5" maxSpeed="1.8845899075361505" /><vType id="vType_car_38.380612182613994" accel="1.0" decel="5.0" sigma="0.0" length="4.5" maxSpeed="10.66128116183722" /><vType id="vType_car_55.589497026090704" accel="1.0" decel="5.0" sigma="0.0" length="4.5" maxSpeed="15.441526951691863" /><vType id="vType_car_57.77318651286378" accel="1.0" decel="5.0" sigma="0.0" length="4.5" maxSpeed="16.048107364684384" /><vType id="vType_car_40.34255079132515" accel="1.0" decel="5.0" sigma="0.0" length="4.5" maxSpeed="11.206264108701431" /><vType id="vType_car_10.497921666436703" accel="1.0" decel="5.0" sigma="0.0" length="4.5" maxSpeed="2.916089351787973" /><vType id="vType_car_15.555210703844146" accel="1.0" decel="5.0" sigma="0.0" length="4.5" maxSpeed="4.32089186217893" /><vType id="vType_car_10.066765985142414" accel="1.0" decel="5.0" sigma="0.0" length="4.5" maxSpeed="2.7963238847617817" /><vType id="vType_car_49.85039584922502" accel="1.0" decel="5.0" sigma="0.0" length="4.5" maxSpeed="13.847332180340285" /><vType id="vType_car_28.83716693430408" accel="1.0" decel="5.0" sigma="0.0" length="4.5" maxSpeed="8.0103241484178" /><vType id="vType_car_31.017775356644925" accel="1.0" decel="5.0" sigma="0.0" length="4.5" maxSpeed="8.616048710179145" /><vType id="vType_car_32.00205948242578" accel="1.0" decel="5.0" sigma="0.0" length="4.5" maxSpeed="8.889460967340494" /><vType id="vType_car_13.745496591671365" accel="1.0" decel="5.0" sigma="0.0" length="4.5" maxSpeed="3.81819349768649" /><vType id="vType_car_16.620095261134857" accel="1.0" decel="5.0" sigma="0.0" length="4.5" maxSpeed="4.616693128093016" /><vType id="vType_car_11.788396541123687" accel="1.0" decel="5.0" sigma="0.0" length="4.5" maxSpeed="3.2745545947565797" /><vType id="vType_car_23.621222546925534" accel="1.0" decel="5.0" sigma="0.0" length="4.5" maxSpeed="6.561450707479315" /><vType id="vType_car_15.614838704142818" accel="1.0" decel="5.0" sigma="0.0" length="4.5" maxSpeed="4.337455195595227" /><vType id="vType_car_7.86674033842256" accel="1.0" decel="5.0" sigma="0.0" length="4.5" maxSpeed="2.1852056495618224" /><vType id="vType_car_57.951841764403106" accel="1.0" decel="5.0" sigma="0.0" length="4.5" maxSpeed="16.097733823445306" /><vType id="vType_car_14.059204220358241" accel="1.0" decel="5.0" sigma="0.0" length="4.5" maxSpeed="3.905334505655067" /><vType id="vType_car_13.160525714276488" accel="1.0" decel="5.0" sigma="0.0" length="4.5" maxSpeed="3.6557015872990246" /><vType id="vType_car_16.17544223882003" accel="1.0" decel="5.0" sigma="0.0" length="4.5" maxSpeed="4.49317839967223" /><vType id="vType_car_13.035771394788535" accel="1.0" decel="5.0" sigma="0.0" length="4.5" maxSpeed="3.621047609663482" /><vType id="vType_car_19.358401262326794" accel="1.0" decel="5.0" sigma="0.0" length="4.5" maxSpeed="5.377333683979665" /><vType id="vType_car_5.778164744832829" accel="1.0" decel="5.0" sigma="0.0" length="4.5" maxSpeed="1.6050457624535635" /><vType id="vType_car_5.5276584277468475" accel="1.0" decel="5.0" sigma="0.0" length="4.5" maxSpeed="1.5354606743741241" /><vType id="vType_car_54.28187288946598" accel="1.0" decel="5.0" sigma="0.0" length="4.5" maxSpeed="15.07829802485166" /><vType id="vType_car_18.68550302287837" accel="1.0" decel="5.0" sigma="0.0" length="4.5" maxSpeed="5.190417506355102" /><vType id="vType_car_16.13718881078157" accel="1.0" decel="5.0" sigma="0.0" length="4.5" maxSpeed="4.482552447439325" /><vType id="vType_car_5.29852717106457" accel="1.0" decel="5.0" sigma="0.0" length="4.5" maxSpeed="1.4718131030734916" /><vType id="vType_car_3.4832913965800594" accel="1.0" decel="5.0" sigma="0.0" length="4.5" maxSpeed="0.9675809434944609" /><vType id="vType_car_4.359306937439926" accel="1.0" decel="5.0" sigma="0.0" length="4.5" maxSpeed="1.2109185937333127" /><vType id="vType_car_13.760858420963329" accel="1.0" decel="5.0" sigma="0.0" length="4.5" maxSpeed="3.8224606724898136" /><vType id="vType_car_4.394334291756935" accel="1.0" decel="5.0" sigma="0.0" length="4.5" maxSpeed="1.2206484143769263" /><vType id="vType_car_5.348431994134415" accel="1.0" decel="5.0" sigma="0.0" length="4.5" maxSpeed="1.4856755539262265" /><vType id="vType_car_11.614527339177984" accel="1.0" decel="5.0" sigma="0.0" length="4.5" maxSpeed="3.2262575942161065" /><vType id="vType_car_29.88084075809552" accel="1.0" decel="5.0" sigma="0.0" length="4.5" maxSpeed="8.300233543915422" /><vType id="vType_car_6.9968112272460825" accel="1.0" decel="5.0" sigma="0.0" length="4.5" maxSpeed="1.9435586742350228" /><vType id="vType_car_4.031785969954167" accel="1.0" decel="5.0" sigma="0.0" length="4.5" maxSpeed="1.1199405472094908" /><vType id="vType_car_3.640999865939658" accel="1.0" decel="5.0" sigma="0.0" length="4.5" maxSpeed="1.011388851649905" /><vType id="vType_car_2.733455774455555" accel="1.0" decel="5.0" sigma="0.0" length="4.5" maxSpeed="0.7592932706820986" /><vType id="vType_car_3.341866206493129" accel="1.0" decel="5.0" sigma="0.0" length="4.5" maxSpeed="0.9282961684703135" /><vType id="vType_car_1.6255359850706943" accel="1.0" decel="5.0" sigma="0.0" length="4.5" maxSpeed="0.45153777363074843" /><vType id="vType_car_4.823871649811302" accel="1.0" decel="5.0" sigma="0.0" length="4.5" maxSpeed="1.3399643471698062" /><vType id="vType_car_19.394262267240627" accel="1.0" decel="5.0" sigma="0.0" length="4.5" maxSpeed="5.387295074233507" /><vType id="vType_car_34.91411277405646" accel="1.0" decel="5.0" sigma="0.0" length="4.5" maxSpeed="9.698364659460129" /><vType id="vType_car_33.282197965256636" accel="1.0" decel="5.0" sigma="0.0" length="4.5" maxSpeed="9.245054990349065" /><vType id="vType_car_13.347543460391067" accel="1.0" decel="5.0" sigma="0.0" length="4.5" maxSpeed="3.707650961219741" /><vType id="vType_car_3.527745793558049" accel="1.0" decel="5.0" sigma="0.0" length="4.5" maxSpeed="0.979929387099458" /><vType id="vType_car_13.587356130393243" accel="1.0" decel="5.0" sigma="0.0" length="4.5" maxSpeed="3.7742655917759005" /><vType id="vType_car_37.45312406518706" accel="1.0" decel="5.0" sigma="0.0" length="4.5" maxSpeed="10.403645573663072" /><vType id="vType_car_22.55685051926442" accel="1.0" decel="5.0" sigma="0.0" length="4.5" maxSpeed="6.265791810906783" /><vType id="vType_car_39.8712556864074" accel="1.0" decel="5.0" sigma="0.0" length="4.5" maxSpeed="11.075348801779834" /><vType id="vType_car_42.28388875887364" accel="1.0" decel="5.0" sigma="0.0" length="4.5" maxSpeed="11.745524655242678" /><vType id="vType_car_3.820520580623002" accel="1.0" decel="5.0" sigma="0.0" length="4.5" maxSpeed="1.0612557168397228" /><vType id="vType_car_27.83685924512221" accel="1.0" decel="5.0" sigma="0.0" length="4.5" maxSpeed="7.732460901422836" /><vType id="vType_car_16.628181317777482" accel="1.0" decel="5.0" sigma="0.0" length="4.5" maxSpeed="4.61893925493819" /><vType id="vType_car_22.231136890716567" accel="1.0" decel="5.0" sigma="0.0" length="4.5" maxSpeed="6.175315802976824" /><vType id="vType_car_14.483277743841922" accel="1.0" decel="5.0" sigma="0.0" length="4.5" maxSpeed="4.023132706622756" /><vType id="vType_car_20.331179929659598" accel="1.0" decel="5.0" sigma="0.0" length="4.5" maxSpeed="5.647549980460999" /><vType id="vType_car_18.12834149422182" accel="1.0" decel="5.0" sigma="0.0" length="4.5" maxSpeed="5.035650415061617" /><vType id="vType_car_3.8849182690127058" accel="1.0" decel="5.0" sigma="0.0" length="4.5" maxSpeed="1.0791439636146405" /><vType id="vType_car_52.67617529678595" accel="1.0" decel="5.0" sigma="0.0" length="4.5" maxSpeed="14.632270915773875" /><vType id="vType_car_14.850757040463133" accel="1.0" decel="5.0" sigma="0.0" length="4.5" maxSpeed="4.125210289017537" /><vType id="vType_car_36.914712305440226" accel="1.0" decel="5.0" sigma="0.0" length="4.5" maxSpeed="10.254086751511174" /><vType id="vType_car_20.389068649733236" accel="1.0" decel="5.0" sigma="0.0" length="4.5" maxSpeed="5.663630180481454" /><vType id="vType_car_2.7866331172640475" accel="1.0" decel="5.0" sigma="0.0" length="4.5" maxSpeed="0.7740647547955687" /><vType id="vType_car_17.511264857073943" accel="1.0" decel="5.0" sigma="0.0" length="4.5" maxSpeed="4.864240238076095" /><vType id="vType_car_8.620692116241086" accel="1.0" decel="5.0" sigma="0.0" length="4.5" maxSpeed="2.3946366989558574" /><vType id="vType_car_3.9383285040914258" accel="1.0" decel="5.0" sigma="0.0" length="4.5" maxSpeed="1.0939801400253961" /><vType id="vType_car_3.9459917720160083" accel="1.0" decel="5.0" sigma="0.0" length="4.5" maxSpeed="1.0961088255600022" /><vType id="vType_car_38.9779800242939" accel="1.0" decel="5.0" sigma="0.0" length="4.5" maxSpeed="10.827216673414972" /><vType id="vType_car_31.61341459149754" accel="1.0" decel="5.0" sigma="0.0" length="4.5" maxSpeed="8.78150405319376" /><vType id="vType_car_41.30525413450011" accel="1.0" decel="5.0" sigma="0.0" length="4.5" maxSpeed="11.473681704027808" /><vType id="vType_car_43.307993255167915" accel="1.0" decel="5.0" sigma="0.0" length="4.5" maxSpeed="12.029998126435531" /><vType id="vType_car_11.764821652262686" accel="1.0" decel="5.0" sigma="0.0" length="4.5" maxSpeed="3.268006014517413" /><vType id="vType_car_35.268360998182594" accel="1.0" decel="5.0" sigma="0.0" length="4.5" maxSpeed="9.796766943939609" /><vType id="vType_car_32.36859599351391" accel="1.0" decel="5.0" sigma="0.0" length="4.5" maxSpeed="8.991276664864975" /><vType id="vType_car_33.845560369656475" accel="1.0" decel="5.0" sigma="0.0" length="4.5" maxSpeed="9.401544547126798" /><vType id="vType_car_4.761612315716315" accel="1.0" decel="5.0" sigma="0.0" length="4.5" maxSpeed="1.3226700876989763" /><vType id="vType_car_0.34832913965800594" accel="1.0" decel="5.0" sigma="0.0" length="4.5" maxSpeed="0.09675809434944609" /><vType id="vType_car_13.182498699599948" accel="1.0" decel="5.0" sigma="0.0" length="4.5" maxSpeed="3.661805194333319" /><vType id="vType_car_39.66415207070725" accel="1.0" decel="5.0" sigma="0.0" length="4.5" maxSpeed="11.017820019640903" /><vType id="vType_car_39.19258812086786" accel="1.0" decel="5.0" sigma="0.0" length="4.5" maxSpeed="10.886830033574405" /><vType id="vType_car_37.845200663697156" accel="1.0" decel="5.0" sigma="0.0" length="4.5" maxSpeed="10.512555739915877" /><vType id="vType_car_40.55656215390944" accel="1.0" decel="5.0" sigma="0.0" length="4.5" maxSpeed="11.26571170941929" /><vType id="vType_car_42.43454126672479" accel="1.0" decel="5.0" sigma="0.0" length="4.5" maxSpeed="11.78737257409022" /><vType id="vType_car_3.843998031120304" accel="1.0" decel="5.0" sigma="0.0" length="4.5" maxSpeed="1.067777230866751" /><vType id="vType_car_26.917915637701313" accel="1.0" decel="5.0" sigma="0.0" length="4.5" maxSpeed="7.477198788250364" /><vType id="vType_car_10.378466442567984" accel="1.0" decel="5.0" sigma="0.0" length="4.5" maxSpeed="2.8829073451577734" /><vType id="vType_car_31.4742844174848" accel="1.0" decel="5.0" sigma="0.0" length="4.5" maxSpeed="8.742856782634666" /><vType id="vType_car_10.31459179771325" accel="1.0" decel="5.0" sigma="0.0" length="4.5" maxSpeed="2.8651643882536804" /><vType id="vType_car_39.359941864503" accel="1.0" decel="5.0" sigma="0.0" length="4.5" maxSpeed="10.933317184584167" /><vType id="vType_car_30.658437338258036" accel="1.0" decel="5.0" sigma="0.0" length="4.5" maxSpeed="8.516232593960565" /><vType id="vType_car_3.7718567042122553" accel="1.0" decel="5.0" sigma="0.0" length="4.5" maxSpeed="1.0477379733922931" /><vType id="vType_car_10.947609190917824" accel="1.0" decel="5.0" sigma="0.0" length="4.5" maxSpeed="3.0410025530327287" /><vType id="vType_car_44.7359881169994" accel="1.0" decel="5.0" sigma="0.0" length="4.5" maxSpeed="12.426663365833166" /><vType id="vType_car_7.682473715658235" accel="1.0" decel="5.0" sigma="0.0" length="4.5" maxSpeed="2.134020476571732" /><vType id="vType_car_5.705879274257082" accel="1.0" decel="5.0" sigma="0.0" length="4.5" maxSpeed="1.5849664650714117" /><vType id="vType_car_4.7462213017431445" accel="1.0" decel="5.0" sigma="0.0" length="4.5" maxSpeed="1.3183948060397623" /><vType id="vType_car_49.74592416130638" accel="1.0" decel="5.0" sigma="0.0" length="4.5" maxSpeed="13.81831226702955" /><vType id="vType_car_9.825827481008615" accel="1.0" decel="5.0" sigma="0.0" length="4.5" maxSpeed="2.729396522502393" /><vType id="vType_car_12.825637767009306" accel="1.0" decel="5.0" sigma="0.0" length="4.5" maxSpeed="3.562677157502585" /><vType id="vType_car_46.77777212011754" accel="1.0" decel="5.0" sigma="0.0" length="4.5" maxSpeed="12.993825588921538" /><vType id="vType_car_38.55940048878588" accel="1.0" decel="5.0" sigma="0.0" length="4.5" maxSpeed="10.710944580218301" /><vType id="vType_car_9.554696664525364" accel="1.0" decel="5.0" sigma="0.0" length="4.5" maxSpeed="2.654082406812601" /><vType id="vType_car_5.506879001433993" accel="1.0" decel="5.0" sigma="0.0" length="4.5" maxSpeed="1.5296886115094424" /><vType id="vType_car_40.44794758648172" accel="1.0" decel="5.0" sigma="0.0" length="4.5" maxSpeed="11.235540996244922" /><vType id="vType_car_50.06923432067308" accel="1.0" decel="5.0" sigma="0.0" length="4.5" maxSpeed="13.908120644631412" /><vType id="vType_car_27.02098771852468" accel="1.0" decel="5.0" sigma="0.0" length="4.5" maxSpeed="7.505829921812411" /><route id="route_north_to_east" edges="north_to_center center_to_east" /><route id="route_north_to_south" edges="north_to_center center_to_south" /><route id="route_north_to_west" edges="north_to_center center_to_west" /><route id="route_east_to_west" edges="east_to_center center_to_west" /><route id="route_east_to_south" edges="east_to_center center_to_south" /><route id="route_east_to_north" edges="east_to_center center_to_north" /><route id="route_south_to_west" edges="south_to_center center_to_west" /><route id="route_south_to_north" edges="south_to_center center_to_north" /><route id="route_south_to_east" edges="south_to_center center_to_east" /><route id="route_west_to_south" edges="west_to_center center_to_south" /><route id="route_west_to_north" edges="west_to_center center_to_north" /><route id="route_west_to_east" edges="west_to_center center_to_east" /><vehicle id="veh473" type="vType_car_27.9811585267656" route="route_west_to_east" depart="0.04" /><vehicle id="veh535" type="vType_car_9.203561164880906" route="route_north_to_east" depart="0.04" /><vehicle id="veh540" type="vType_car_11.136211256612988" route="route_north_to_east" depart="0.04" /><vehicle id="veh551" type="vType_car_13.705152752449115" route="route_west_to_north" depart="6.73" /><vehicle id="veh566" type="vType_car_12.152527989757159" route="route_south_to_north" depart="7.56" /><vehicle id="veh577" type="vType_car_72.56325748902792" route="route_west_to_south" depart="8.90" /><vehicle id="veh584" type="vType_car_12.187668958799767" route="route_west_to_north" depart="9.88" /><vehicle id="veh594" type="vType_car_16.315487449135052" route="route_south_to_east" depart="10.38" /><vehicle id="veh598" type="vType_car_41.540749759725074" route="route_east_to_west" depart="10.63" /><vehicle id="veh600" type="vType_car_38.8826277280852" route="route_east_to_west" depart="10.63" /><vehicle id="veh633" type="vType_car_15.130390805869503" route="route_east_to_north" depart="13.42" /><vehicle id="veh634" type="vType_car_15.473389088744659" route="route_west_to_east" depart="13.82" /><vehicle id="veh640" type="vType_car_22.228288731705398" route="route_west_to_south" depart="14.43" /><vehicle id="veh650" type="vType_car_40.34255079132515" route="route_east_to_west" depart="17.76" /><vehicle id="veh652" type="vType_car_15.555210703844146" route="route_west_to_east" depart="18.34" /><vehicle id="veh658" type="vType_car_32.00205948242578" route="route_east_to_south" depart="18.88" /><vehicle id="veh659" type="vType_car_13.745496591671365" route="route_west_to_south" depart="18.88" /><vehicle id="veh660" type="vType_car_16.620095261134857" route="route_north_to_west" depart="18.88" /><vehicle id="veh662" type="vType_car_23.621222546925534" route="route_east_to_south" depart="18.88" /><vehicle id="veh663" type="vType_car_15.614838704142818" route="route_east_to_north" depart="18.88" /><vehicle id="veh667" type="vType_car_13.160525714276488" route="route_east_to_north" depart="19.68" /><vehicle id="veh668" type="vType_car_16.17544223882003" route="route_south_to_east" depart="20.08" /><vehicle id="veh673" type="vType_car_13.035771394788535" route="route_west_to_south" depart="21.56" /><vehicle id="veh677" type="vType_car_19.358401262326794" route="route_south_to_east" depart="22.82" /><vehicle id="veh681" type="vType_car_18.68550302287837" route="route_south_to_north" depart="24.78" /><vehicle id="veh692" type="vType_car_13.760858420963329" route="route_south_to_east" depart="27.35" /><vehicle id="veh697" type="vType_car_11.614527339177984" route="route_south_to_east" depart="29.52" /><vehicle id="veh709" type="vType_car_19.394262267240627" route="route_north_to_west" depart="36.64" /><vehicle id="veh711" type="vType_car_34.91411277405646" route="route_north_to_south" depart="37.33" /><vehicle id="veh712" type="vType_car_33.282197965256636" route="route_north_to_south" depart="38.96" /><vehicle id="veh713" type="vType_car_13.347543460391067" route="route_west_to_north" depart="39.75" /><vehicle id="veh719" type="vType_car_13.587356130393243" route="route_west_to_east" depart="41.53" /><vehicle id="veh722" type="vType_car_37.45312406518706" route="route_north_to_south" depart="42.94" /><vehicle id="veh724" type="vType_car_22.55685051926442" route="route_south_to_north" depart="43.73" /><vehicle id="veh725" type="vType_car_39.8712556864074" route="route_north_to_south" depart="45.07" /><vehicle id="veh729" type="vType_car_27.83685924512221" route="route_south_to_north" depart="47.53" /><vehicle id="veh730" type="vType_car_16.628181317777482" route="route_north_to_east" depart="47.93" /><vehicle id="veh731" type="vType_car_22.231136890716567" route="route_north_to_west" depart="47.93" /><vehicle id="veh732" type="vType_car_14.483277743841922" route="route_east_to_west" depart="48.65" /><vehicle id="veh733" type="vType_car_20.331179929659598" route="route_north_to_west" depart="50.46" /><vehicle id="veh737" type="vType_car_18.12834149422182" route="route_north_to_west" depart="53.86" /><vehicle id="veh741" type="vType_car_52.67617529678595" route="route_south_to_north" depart="56.32" /><vehicle id="veh744" type="vType_car_14.850757040463133" route="route_north_to_east" depart="56.79" /><vehicle id="veh745" type="vType_car_36.914712305440226" route="route_north_to_south" depart="57.62" /><vehicle id="veh746" type="vType_car_20.389068649733236" route="route_west_to_east" depart="57.73" /><vehicle id="veh750" type="vType_car_17.511264857073943" route="route_south_to_east" depart="59.87" /><vehicle id="veh752" type="vType_car_8.620692116241086" route="route_east_to_south" depart="62.94" /><vehicle id="veh759" type="vType_car_38.9779800242939" route="route_west_to_east" depart="72.71" /><vehicle id="veh763" type="vType_car_31.61341459149754" route="route_west_to_east" depart="75.46" /><vehicle id="veh766" type="vType_car_41.30525413450011" route="route_