<?xml version='1.0' encoding='utf-8'?>
<routes><vType id="vType_car_21.110605413881355" accel="1.0" decel="5.0" sigma="0.0" length="4.5" maxSpeed="5.864057059411487" /><vType id="vType_car_7.96119408687632" accel="1.0" decel="5.0" sigma="0.0" length="4.5" maxSpeed="2.211442801910089" /><vType id="vType_car_23.901630985623452" accel="1.0" decel="5.0" sigma="0.0" length="4.5" maxSpeed="6.639341940450959" /><vType id="vType_bus_20.706004656410528" accel="1.0" decel="5.0" sigma="0.0" length="13" maxSpeed="5.751667960114036" /><vType id="vType_car_25.80913720524145" accel="1.0" decel="5.0" sigma="0.0" length="4.5" maxSpeed="7.169204779233736" /><vType id="vType_truck_18.789811621438542" accel="1.0" decel="5.0" sigma="0.0" length="8" maxSpeed="5.219392117066262" /><vType id="vType_car_3.7579623242877083" accel="1.0" decel="5.0" sigma="0.0" length="4.5" maxSpeed="1.0438784234132523" /><vType id="vType_car_41.7847725328043" accel="1.0" decel="5.0" sigma="0.0" length="4.5" maxSpeed="11.606881259112305" /><vType id="vType_car_37.69771033442247" accel="1.0" decel="5.0" sigma="0.0" length="4.5" maxSpeed="10.471586204006242" /><vType id="vType_car_12.42238590612731" accel="1.0" decel="5.0" sigma="0.0" length="4.5" maxSpeed="3.4506627517020307" /><vType id="vType_car_11.299608027468853" accel="1.0" decel="5.0" sigma="0.0" length="4.5" maxSpeed="3.138780007630237" /><vType id="vType_car_7.5159246485754165" accel="1.0" decel="5.0" sigma="0.0" length="4.5" maxSpeed="2.0877568468265046" /><vType id="vType_car_49.81958170323527" accel="1.0" decel="5.0" sigma="0.0" length="4.5" maxSpeed="13.838772695343131" /><vType id="vType_car_15.321186671249222" accel="1.0" decel="5.0" sigma="0.0" length="4.5" maxSpeed="4.2558851864581175" /><vType id="vType_car_3.860394690429351" accel="1.0" decel="5.0" sigma="0.0" length="4.5" maxSpeed="1.0723318584525974" /><vType id="vType_car_43.6776007455536" accel="1.0" decel="5.0" sigma="0.0" length="4.5" maxSpeed="12.132666873764888" /><vType id="vType_car_19.575280791473872" accel="1.0" decel="5.0" sigma="0.0" length="4.5" maxSpeed="5.437577997631631" /><vType id="vType_car_53.63530382749367" accel="1.0" decel="5.0" sigma="0.0" length="4.5" maxSpeed="14.89869550763713" /><route id="route_north_to_east" edges="north_to_center center_to_east" /><route id="route_north_to_south" edges="north_to_center center_to_south" /><route id="route_north_to_west" edges="north_to_center center_to_west" /><route id="route_east_to_west" edges="east_to_center center_to_west" /><route id="route_east_to_south" edges="east_to_center center_to_south" /><route id="route_east_to_north" edges="east_to_center center_to_north" /><route id="route_south_to_west" edges="south_to_center center_to_west" /><route id="route_south_to_north" edges="south_to_center center_to_north" /><route id="route_south_to_east" edges="south_to_center center_to_east" /><route id="route_west_to_south" edges="west_to_center center_to_south" /><route id="route_west_to_north" edges="west_to_center center_to_north" /><route id="route_west_to_east" edges="west_to_center center_to_east" /><vehicle id="veh135" type="vType_car_21.110605413881355" route="route_west_to_east" depart="0.03" /><vehicle id="veh139" type="vType_car_23.901630985623452" route="route_west_to_east" depart="0.03" /><vehicle id="veh140" type="vType_car_25.80913720524145" route="route_east_to_west" depart="0.03" /><vehicle id="veh143" type="vType_car_41.7847725328043" route="route_west_to_east" depart="21.46" /><vehicle id="veh144" type="vType_car_37.69771033442247" route="route_west_to_east" depart="23.13" /><vehicle id="veh145" type="vType_car_12.42238590612731" route="route_south_to_east" depart="24.34" /><vehicle id="veh146" type="vType_car_11.299608027468853" route="route_north_to_south" depart="27.23" /><vehicle id="veh150" type="vType_car_49.81958170323527" route="route_east_to_west" depart="31.75" /><vehicle id="veh152" type="vType_car_15.321186671249222" route="route_south_to_east" depart="32.62" /><vehicle id="veh155" type="vType_car_43.6776007455536" route="route_south_to_north" depart="46.94" /><vehicle id="veh156" type="vType_car_19.575280791473872" route="route_north_to_west" depart="47.98" /><vehicle id="veh157" type="vType_car_53.63530382749367" route="route_north_to_south" depart="54.82" /></routes>