<?xml version='1.0' encoding='utf-8'?>
<routes><vType id="vType_car_7.942977718381284" accel="1.0" decel="5.0" sigma="0.0" length="4.5" maxSpeed="2.206382699550357" /><vType id="vType_car_17.924181646596956" accel="1.0" decel="5.0" sigma="0.0" length="4.5" maxSpeed="4.978939346276932" /><vType id="vType_car_51.36788205171679" accel="1.0" decel="5.0" sigma="0.0" length="4.5" maxSpeed="14.268856125476885" /><vType id="vType_car_47.71132866785864" accel="1.0" decel="5.0" sigma="0.0" length="4.5" maxSpeed="13.253146852182955" /><vType id="vType_car_17.497454846042693" accel="1.0" decel="5.0" sigma="0.0" length="4.5" maxSpeed="4.860404123900748" /><vType id="vType_car_14.983720120457898" accel="1.0" decel="5.0" sigma="0.0" length="4.5" maxSpeed="4.162144477904971" /><vType id="vType_truck_23.452186065475782" accel="1.0" decel="5.0" sigma="0.0" length="8" maxSpeed="6.514496129298828" /><vType id="vType_car_39.755654759755146" accel="1.0" decel="5.0" sigma="0.0" length="4.5" maxSpeed="11.043237433265318" /><vType id="vType_car_24.37745235210145" accel="1.0" decel="5.0" sigma="0.0" length="4.5" maxSpeed="6.771514542250403" /><vType id="vType_car_26.52227205692532" accel="1.0" decel="5.0" sigma="0.0" length="4.5" maxSpeed="7.3672977935903665" /><vType id="vType_car_31.079722257924644" accel="1.0" decel="5.0" sigma="0.0" length="4.5" maxSpeed="8.633256182756845" /><vType id="vType_car_35.518806240310745" accel="1.0" decel="5.0" sigma="0.0" length="4.5" maxSpeed="9.866335066752985" /><vType id="vType_car_38.20795101740724" accel="1.0" decel="5.0" sigma="0.0" length="4.5" maxSpeed="10.613319727057567" /><vType id="vType_car_9.733262487077566" accel="1.0" decel="5.0" sigma="0.0" length="4.5" maxSpeed="2.7036840241882127" /><vType id="vType_car_4.399898926340982" accel="1.0" decel="5.0" sigma="0.0" length="4.5" maxSpeed="1.2221941462058283" /><vType id="vType_car_5.132194373788085" accel="1.0" decel="5.0" sigma="0.0" length="4.5" maxSpeed="1.425609548274468" /><vType id="vType_car_4.977774134480612" accel="1.0" decel="5.0" sigma="0.0" length="4.5" maxSpeed="1.3827150373557255" /><vType id="vType_car_56.262624659841435" accel="1.0" decel="5.0" sigma="0.0" length="4.5" maxSpeed="15.628506849955954" /><vType id="vType_car_4.499421032591452" accel="1.0" decel="5.0" sigma="0.0" length="4.5" maxSpeed="1.2498391757198477" /><vType id="vType_car_6.904625737237578" accel="1.0" decel="5.0" sigma="0.0" length="4.5" maxSpeed="1.917951593677105" /><vType id="vType_car_27.282440354389717" accel="1.0" decel="5.0" sigma="0.0" length="4.5" maxSpeed="7.5784556539971435" /><route id="route_north_to_east" edges="north_to_center center_to_east" /><route id="route_north_to_south" edges="north_to_center center_to_south" /><route id="route_north_to_west" edges="north_to_center center_to_west" /><route id="route_east_to_west" edges="east_to_center center_to_west" /><route id="route_east_to_south" edges="east_to_center center_to_south" /><route id="route_east_to_north" edges="east_to_center center_to_north" /><route id="route_south_to_west" edges="south_to_center center_to_west" /><route id="route_south_to_north" edges="south_to_center center_to_north" /><route id="route_south_to_east" edges="south_to_center center_to_east" /><route id="route_west_to_south" edges="west_to_center center_to_south" /><route id="route_west_to_north" edges="west_to_center center_to_north" /><route id="route_west_to_east" edges="west_to_center center_to_east" /><vehicle id="veh191" type="vType_car_17.924181646596956" route="route_north_to_south" depart="0.03" /><vehicle id="veh192" type="vType_car_51.36788205171679" route="route_east_to_west" depart="4.59" /><vehicle id="veh194" type="vType_car_47.71132866785864" route="route_east_to_west" depart="9.79" /><vehicle id="veh195" type="vType_car_17.497454846042693" route="route_north_to_south" depart="10.96" /><vehicle id="veh196" type="vType_car_14.983720120457898" route="route_south_to_north" depart="16.23" /><vehicle id="veh198" type="vType_truck_23.452186065475782" route="route_west_to_east" depart="24.64" /><vehicle id="veh199" type="vType_car_39.755654759755146" route="route_south_to_north" depart="29.20" /><vehicle id="veh200" type="vType_car_24.37745235210145" route="route_west_to_east" depart="30.14" /><vehicle id="veh201" type="vType_car_26.52227205692532" route="route_east_to_west" depart="33.70" /><vehicle id="veh202" type="vType_car_31.079722257924644" route="route_west_to_east" depart="38.49" /><vehicle id="veh204" type="vType_car_35.518806240310745" route="route_west_to_east" depart="39.36" /><vehicle id="veh205" type="vType_car_38.20795101740724" route="route_west_to_east" depart="42.28" /><vehicle id="veh213" type="vType_car_56.262624659841435" route="route_west_to_east" depart="53.34" /></routes>