<?xml version="1.0" encoding="utf-8"?>
<routes>
	<vType id="vType_car_48.23085476185526" accel="1.0" decel="5.0" sigma="0.0" length="4.5" maxSpeed="13.397459656070906" />
	<vType id="vType_car_24.886774727384573" accel="1.0" decel="5.0" sigma="0.0" length="4.5" maxSpeed="6.912992979829048" />
	<vType id="vType_car_8.787221499775553" accel="1.0" decel="5.0" sigma="0.0" length="4.5" maxSpeed="2.440894861048765" />
	<vType id="vType_car_22.248485656977437" accel="1.0" decel="5.0" sigma="0.0" length="4.5" maxSpeed="6.180134904715954" />
	<vType id="vType_car_4.683438502648957" accel="1.0" decel="5.0" sigma="0.0" length="4.5" maxSpeed="1.3009551396247103" />
	<vType id="vType_car_19.875864322747304" accel="1.0" decel="5.0" sigma="0.0" length="4.5" maxSpeed="5.521073422985363" />
	<vType id="vType_car_23.130814417667775" accel="1.0" decel="5.0" sigma="0.0" length="4.5" maxSpeed="6.425226227129937" />
	<vType id="vType_car_24.62016728862032" accel="1.0" decel="5.0" sigma="0.0" length="4.5" maxSpeed="6.8389353579500884" />
	<vType id="vType_car_2.1007648034976065" accel="1.0" decel="5.0" sigma="0.0" length="4.5" maxSpeed="0.5835457787493351" />
	<vType id="vType_car_20.656247668080262" accel="1.0" decel="5.0" sigma="0.0" length="4.5" maxSpeed="5.737846574466739" />
	<vType id="vType_car_5.030813946078735" accel="1.0" decel="5.0" sigma="0.0" length="4.5" maxSpeed="1.397448318355204" />
	<vType id="vType_car_21.32377810639368" accel="1.0" decel="5.0" sigma="0.0" length="4.5" maxSpeed="5.923271696220466" />
	<vType id="vType_car_19.779634754765624" accel="1.0" decel="5.0" sigma="0.0" length="4.5" maxSpeed="5.494342987434895" />
	<vType id="vType_car_4.7956949653591" accel="1.0" decel="5.0" sigma="0.0" length="4.5" maxSpeed="1.3321374903775278" />
	<vType id="vType_car_15.792490292435179" accel="1.0" decel="5.0" sigma="0.0" length="4.5" maxSpeed="4.386802859009772" />
	<vType id="vType_car_5.436044534322538" accel="1.0" decel="5.0" sigma="0.0" length="4.5" maxSpeed="1.5100123706451494" />
	<vType id="vType_car_24.085127224579253" accel="1.0" decel="5.0" sigma="0.0" length="4.5" maxSpeed="6.690313117938681" />
	<vType id="vType_car_36.263417732742994" accel="1.0" decel="5.0" sigma="0.0" length="4.5" maxSpeed="10.07317159242861" />
	<vType id="vType_car_13.812185473285712" accel="1.0" decel="5.0" sigma="0.0" length="4.5" maxSpeed="3.8367181870238087" />
	<vType id="vType_car_1.3665317542864392" accel="1.0" decel="5.0" sigma="0.0" length="4.5" maxSpeed="0.37959215396845536" />
	<vType id="vType_car_14.401159451099364" accel="1.0" decel="5.0" sigma="0.0" length="4.5" maxSpeed="4.000322069749823" />
	<vType id="vType_car_16.135837693905618" accel="1.0" decel="5.0" sigma="0.0" length="4.5" maxSpeed="4.482177137196005" />
	<vType id="vType_car_12.662992276793641" accel="1.0" decel="5.0" sigma="0.0" length="4.5" maxSpeed="3.5174978546649003" />
	<vType id="vType_car_14.079580381058156" accel="1.0" decel="5.0" sigma="0.0" length="4.5" maxSpeed="3.910994550293932" />
	<vType id="vType_car_40.47412244517605" accel="1.0" decel="5.0" sigma="0.0" length="4.5" maxSpeed="11.24281179032668" />
	<vType id="vType_car_15.343389765680522" accel="1.0" decel="5.0" sigma="0.0" length="4.5" maxSpeed="4.262052712689034" />
	<vType id="vType_car_14.232747385676843" accel="1.0" decel="5.0" sigma="0.0" length="4.5" maxSpeed="3.9535409404657895" />
	<vType id="vType_car_13.75298658286536" accel="1.0" decel="5.0" sigma="0.0" length="4.5" maxSpeed="3.820274050795933" />
	<route id="route_north_to_east" edges="north_to_center center_to_east" />
	<route id="route_north_to_south" edges="north_to_center center_to_south" />
	<route id="route_north_to_west" edges="north_to_center center_to_west" />
	<route id="route_east_to_west" edges="east_to_center center_to_west" />
	<route id="route_east_to_south" edges="east_to_center center_to_south" />
	<route id="route_east_to_north" edges="east_to_center center_to_north" />
	<route id="route_south_to_west" edges="south_to_center center_to_west" />
	<route id="route_south_to_north" edges="south_to_center center_to_north" />
	<route id="route_south_to_east" edges="south_to_center center_to_east" />
	<route id="route_west_to_south" edges="west_to_center center_to_south" />
	<route id="route_west_to_north" edges="west_to_center center_to_north" />
	<route id="route_west_to_east" edges="west_to_center center_to_east" />
	<vehicle id="veh206" type="vType_car_48.23085476185526" route="route_south_to_west" depart="0.03" />
	<vehicle id="veh210" type="vType_car_24.886774727384573" route="route_north_to_south" depart="0.03" />
	<vehicle id="veh215" type="vType_car_8.787221499775553" route="route_east_to_north" depart="0.03" />
	<vehicle id="veh216" type="vType_car_22.248485656977437" route="route_west_to_east" depart="0.03" />
	<vehicle id="veh219" type="vType_car_19.875864322747304" route="route_west_to_east" depart="14.08" />
	<vehicle id="veh220" type="vType_car_23.130814417667775" route="route_east_to_west" depart="15.83" />
	<vehicle id="veh221" type="vType_car_24.62016728862032" route="route_south_to_north" depart="16.09" />
	<vehicle id="veh225" type="vType_car_20.656247668080262" route="route_east_to_west" depart="19.18" />
	<vehicle id="veh228" type="vType_car_21.32377810639368" route="route_east_to_west" depart="22.03" />
	<vehicle id="veh229" type="vType_car_19.779634754765624" route="route_south_to_east" depart="24.14" />
	<vehicle id="veh231" type="vType_car_15.792490292435179" route="route_north_to_south" depart="34.20" />
	<vehicle id="veh233" type="vType_car_24.085127224579253" route="route_south_to_north" depart="51.13" />
	<vehicle id="veh235" type="vType_car_36.263417732742994" route="route_south_to_north" depart="62.53" />
	<vehicle id="veh236" type="vType_car_13.812185473285712" route="route_east_to_south" depart="76.28" />
	<vehicle id="veh241" type="vType_car_14.401159451099364" route="route_east_to_south" depart="79.03" />
	<vehicle id="veh243" type="vType_car_16.135837693905618" route="route_north_to_west" depart="79.83" />
	<vehicle id="veh244" type="vType_car_12.662992276793641" route="route_north_to_east" depart="81.64" />
	<vehicle id="veh245" type="vType_car_14.079580381058156" route="route_east_to_south" depart="84.83" />
	<vehicle id="veh246" type="vType_car_40.47412244517605" route="route_east_to_west" depart="85.23" />
	<vehicle id="veh247" type="vType_car_15.343389765680522" route="route_north_to_west" depart="85.60" />
	<vehicle id="veh248" type="vType_car_14.232747385676843" route="route_north_to_south" depart="87.58" />
</routes>
