<?xml version='1.0' encoding='utf-8'?>
<routes><vType id="vType_car_14.501329017934673" accel="1.0" decel="5.0" sigma="0.0" length="4.5" maxSpeed="4.028146949426298" /><vType id="vType_car_7.565966882132131" accel="1.0" decel="5.0" sigma="0.0" length="4.5" maxSpeed="2.101657467258925" /><vType id="vType_car_21.95587935862218" accel="1.0" decel="5.0" sigma="0.0" length="4.5" maxSpeed="6.09885537739505" /><vType id="vType_car_61.663084407942165" accel="1.0" decel="5.0" sigma="0.0" length="4.5" maxSpeed="17.12863455776171" /><vType id="vType_car_4.669524777677764" accel="1.0" decel="5.0" sigma="0.0" length="4.5" maxSpeed="1.2970902160216011" /><vType id="vType_car_64.85514131677971" accel="1.0" decel="5.0" sigma="0.0" length="4.5" maxSpeed="18.01531703243881" /><vType id="vType_car_10.060640738854328" accel="1.0" decel="5.0" sigma="0.0" length="4.5" maxSpeed="2.7946224274595357" /><vType id="vType_car_22.571531283409186" accel="1.0" decel="5.0" sigma="0.0" length="4.5" maxSpeed="6.269869800946996" /><vType id="vType_car_19.148454084444108" accel="1.0" decel="5.0" sigma="0.0" length="4.5" maxSpeed="5.319015023456696" /><vType id="vType_car_6.5893592021977305" accel="1.0" decel="5.0" sigma="0.0" length="4.5" maxSpeed="1.8303775561660363" /><vType id="vType_car_17.118483398907138" accel="1.0" decel="5.0" sigma="0.0" length="4.5" maxSpeed="4.7551342774742045" /><vType id="vType_car_8.992751557851465" accel="1.0" decel="5.0" sigma="0.0" length="4.5" maxSpeed="2.497986543847629" /><vType id="vType_car_29.416163738646837" accel="1.0" decel="5.0" sigma="0.0" length="4.5" maxSpeed="8.171156594068565" /><vType id="vType_car_26.03276469906822" accel="1.0" decel="5.0" sigma="0.0" length="4.5" maxSpeed="7.23132352751895" /><vType id="vType_car_17.366610175689157" accel="1.0" decel="5.0" sigma="0.0" length="4.5" maxSpeed="4.824058382135877" /><vType id="vType_car_17.390026825295898" accel="1.0" decel="5.0" sigma="0.0" length="4.5" maxSpeed="4.8305630070266385" /><vType id="vType_car_31.195665088303137" accel="1.0" decel="5.0" sigma="0.0" length="4.5" maxSpeed="8.66546252452865" /><vType id="vType_car_15.953914207250751" accel="1.0" decel="5.0" sigma="0.0" length="4.5" maxSpeed="4.43164283534743" /><vType id="vType_car_29.951389151012144" accel="1.0" decel="5.0" sigma="0.0" length="4.5" maxSpeed="8.319830319725595" /><vType id="vType_car_6.509606304260687" accel="1.0" decel="5.0" sigma="0.0" length="4.5" maxSpeed="1.8082239734057461" /><vType id="vType_car_23.453899311247312" accel="1.0" decel="5.0" sigma="0.0" length="4.5" maxSpeed="6.514972030902031" /><vType id="vType_car_14.970204490715588" accel="1.0" decel="5.0" sigma="0.0" length="4.5" maxSpeed="4.158390136309886" /><vType id="vType_car_19.019537537819502" accel="1.0" decel="5.0" sigma="0.0" length="4.5" maxSpeed="5.283204871616529" /><vType id="vType_car_27.57123988151738" accel="1.0" decel="5.0" sigma="0.0" length="4.5" maxSpeed="7.658677744865939" /><vType id="vType_car_5.121393847956873" accel="1.0" decel="5.0" sigma="0.0" length="4.5" maxSpeed="1.4226094022102425" /><vType id="vType_car_9.699444670683002" accel="1.0" decel="5.0" sigma="0.0" length="4.5" maxSpeed="2.694290186300834" /><vType id="vType_car_19.995095834449288" accel="1.0" decel="5.0" sigma="0.0" length="4.5" maxSpeed="5.554193287347024" /><vType id="vType_car_16.874832753628695" accel="1.0" decel="5.0" sigma="0.0" length="4.5" maxSpeed="4.687453542674637" /><vType id="vType_car_21.06295751826128" accel="1.0" decel="5.0" sigma="0.0" length="4.5" maxSpeed="5.850821532850355" /><vType id="vType_car_16.415493061719005" accel="1.0" decel="5.0" sigma="0.0" length="4.5" maxSpeed="4.559859183810834" /><vType id="vType_truck_9.057868033495556" accel="1.0" decel="5.0" sigma="0.0" length="8" maxSpeed="2.5160744537487654" /><vType id="vType_car_16.04606348389623" accel="1.0" decel="5.0" sigma="0.0" length="4.5" maxSpeed="4.457239856637842" /><vType id="vType_car_16.465797587462163" accel="1.0" decel="5.0" sigma="0.0" length="4.5" maxSpeed="4.573832663183934" /><vType id="vType_car_31.54936666368402" accel="1.0" decel="5.0" sigma="0.0" length="4.5" maxSpeed="8.76371296213445" /><vType id="vType_car_19.141957427100568" accel="1.0" decel="5.0" sigma="0.0" length="4.5" maxSpeed="5.317210396416824" /><vType id="vType_car_15.322868100407375" accel="1.0" decel="5.0" sigma="0.0" length="4.5" maxSpeed="4.256352250113159" /><vType id="vType_car_16.77321481810687" accel="1.0" decel="5.0" sigma="0.0" length="4.5" maxSpeed="4.659226338363019" /><vType id="vType_car_4.395300300189941" accel="1.0" decel="5.0" sigma="0.0" length="4.5" maxSpeed="1.2209167500527613" /><vType id="vType_truck_18.1859033467836" accel="1.0" decel="5.0" sigma="0.0" length="8" maxSpeed="5.051639818551" /><vType id="vType_car_9.671827828995106" accel="1.0" decel="5.0" sigma="0.0" length="4.5" maxSpeed="2.686618841387529" /><vType id="vType_car_29.127768154139098" accel="1.0" decel="5.0" sigma="0.0" length="4.5" maxSpeed="8.091046709483082" /><vType id="vType_car_29.289228136363096" accel="1.0" decel="5.0" sigma="0.0" length="4.5" maxSpeed="8.135896704545305" /><vType id="vType_car_20.858658788097593" accel="1.0" decel="5.0" sigma="0.0" length="4.5" maxSpeed="5.794071885582665" /><vType id="vType_car_20.58885061287646" accel="1.0" decel="5.0" sigma="0.0" length="4.5" maxSpeed="5.719125170243461" /><vType id="vType_car_15.070969361351983" accel="1.0" decel="5.0" sigma="0.0" length="4.5" maxSpeed="4.186380378153329" /><vType id="vType_car_27.955328428858184" accel="1.0" decel="5.0" sigma="0.0" length="4.5" maxSpeed="7.765369008016162" /><vType id="vType_car_30.475111349982523" accel="1.0" decel="5.0" sigma="0.0" length="4.5" maxSpeed="8.465308708328479" /><vType id="vType_car_5.789236087535173" accel="1.0" decel="5.0" sigma="0.0" length="4.5" maxSpeed="1.6081211354264369" /><vType id="vType_car_11.997986823785128" accel="1.0" decel="5.0" sigma="0.0" length="4.5" maxSpeed="3.332774117718091" /><vType id="vType_car_31.835135630546734" accel="1.0" decel="5.0" sigma="0.0" length="4.5" maxSpeed="8.843093230707426" /><vType id="vType_car_24.302178668182506" accel="1.0" decel="5.0" sigma="0.0" length="4.5" maxSpeed="6.7506051856062514" /><vType id="vType_car_19.71026682629882" accel="1.0" decel="5.0" sigma="0.0" length="4.5" maxSpeed="5.475074118416339" /><vType id="vType_car_21.609701749285254" accel="1.0" decel="5.0" sigma="0.0" length="4.5" maxSpeed="6.0026949303570145" /><vType id="vType_car_5.248365792444963" accel="1.0" decel="5.0" sigma="0.0" length="4.5" maxSpeed="1.4578793867902673" /><vType id="vType_car_16.074806554912232" accel="1.0" decel="5.0" sigma="0.0" length="4.5" maxSpeed="4.465224043031175" /><vType id="vType_car_37.03527223550963" accel="1.0" decel="5.0" sigma="0.0" length="4.5" maxSpeed="10.287575620974897" /><vType id="vType_car_18.762313733928874" accel="1.0" decel="5.0" sigma="0.0" length="4.5" maxSpeed="5.211753814980242" /><vType id="vType_car_20.061881282352036" accel="1.0" decel="5.0" sigma="0.0" length="4.5" maxSpeed="5.572744800653344" /><vType id="vType_car_16.2247675047924" accel="1.0" decel="5.0" sigma="0.0" length="4.5" maxSpeed="4.506879862442333" /><vType id="vType_car_28.053957641013426" accel="1.0" decel="5.0" sigma="0.0" length="4.5" maxSpeed="7.792766011392618" /><vType id="vType_car_3.860262754113264" accel="1.0" decel="5.0" sigma="0.0" length="4.5" maxSpeed="1.0722952094759066" /><vType id="vType_car_29.452548949599063" accel="1.0" decel="5.0" sigma="0.0" length="4.5" maxSpeed="8.181263597110851" /><vType id="vType_car_24.731340676385855" accel="1.0" decel="5.0" sigma="0.0" length="4.5" maxSpeed="6.869816854551626" /><vType id="vType_car_2.9772667753966955" accel="1.0" decel="5.0" sigma="0.0" length="4.5" maxSpeed="0.8270185487213043" /><vType id="vType_car_20.93666433667805" accel="1.0" decel="5.0" sigma="0.0" length="4.5" maxSpeed="5.81574009352168" /><vType id="vType_car_10.345896727960694" accel="1.0" decel="5.0" sigma="0.0" length="4.5" maxSpeed="2.873860202211304" /><vType id="vType_car_24.79608612507481" accel="1.0" decel="5.0" sigma="0.0" length="4.5" maxSpeed="6.8878017014096695" /><vType id="vType_car_3.163845790940045" accel="1.0" decel="5.0" sigma="0.0" length="4.5" maxSpeed="0.8788460530389013" /><vType id="vType_car_26.845668613845245" accel="1.0" decel="5.0" sigma="0.0" length="4.5" maxSpeed="7.457130170512568" /><vType id="vType_car_1.935828777302334" accel="1.0" decel="5.0" sigma="0.0" length="4.5" maxSpeed="0.537730215917315" /><vType id="vType_car_20.26330579577605" accel="1.0" decel="5.0" sigma="0.0" length="4.5" maxSpeed="5.628696054382235" /><vType id="vType_truck_18.34932523657289" accel="1.0" decel="5.0" sigma="0.0" length="8" maxSpeed="5.097034787936914" /><vType id="vType_car_26.49317009697688" accel="1.0" decel="5.0" sigma="0.0" length="4.5" maxSpeed="7.359213915826911" /><vType id="vType_car_18.783642243016953" accel="1.0" decel="5.0" sigma="0.0" length="4.5" maxSpeed="5.217678400838042" /><vType id="vType_car_22.188618125959522" accel="1.0" decel="5.0" sigma="0.0" length="4.5" maxSpeed="6.163505034988756" /><vType id="vType_car_28.96584137498215" accel="1.0" decel="5.0" sigma="0.0" length="4.5" maxSpeed="8.046067048606153" /><vType id="vType_car_21.279167666526774" accel="1.0" decel="5.0" sigma="0.0" length="4.5" maxSpeed="5.910879907368549" /><vType id="vType_car_5.833853709890635" accel="1.0" decel="5.0" sigma="0.0" length="4.5" maxSpeed="1.6205149194140651" /><vType id="vType_car_44.81630739985853" accel="1.0" decel="5.0" sigma="0.0" length="4.5" maxSpeed="12.44897427773848" /><vType id="vType_car_25.94212853477935" accel="1.0" decel="5.0" sigma="0.0" length="4.5" maxSpeed="7.206146815216486" /><vType id="vType_car_4.309114822171798" accel="1.0" decel="5.0" sigma="0.0" length="4.5" maxSpeed="1.1969763394921662" /><vType id="vType_car_14.552979004674071" accel="1.0" decel="5.0" sigma="0.0" length="4.5" maxSpeed="4.04249416796502" /><vType id="vType_car_4.089036235426257" accel="1.0" decel="5.0" sigma="0.0" length="4.5" maxSpeed="1.1358433987295158" /><vType id="vType_car_30.979128801516282" accel="1.0" decel="5.0" sigma="0.0" length="4.5" maxSpeed="8.605313555976744" /><vType id="vType_car_6.89343687586663" accel="1.0" decel="5.0" sigma="0.0" length="4.5" maxSpeed="1.9148435766296195" /><vType id="vType_car_19.154059561859874" accel="1.0" decel="5.0" sigma="0.0" length="4.5" maxSpeed="5.320572100516632" /><vType id="vType_car_3.719061776136819" accel="1.0" decel="5.0" sigma="0.0" length="4.5" maxSpeed="1.0330727155935608" /><vType id="vType_car_29.157242271031986" accel="1.0" decel="5.0" sigma="0.0" length="4.5" maxSpeed="8.099233964175552" /><vType id="vType_car_2.7792817909700656" accel="1.0" decel="5.0" sigma="0.0" length="4.5" maxSpeed="0.7720227197139071" /><vType id="vType_car_23.24401063848239" accel="1.0" decel="5.0" sigma="0.0" length="4.5" maxSpeed="6.456669621800664" /><vType id="vType_car_69.23349904344609" accel="1.0" decel="5.0" sigma="0.0" length="4.5" maxSpeed="19.231527512068357" /><vType id="vType_car_6.463494252692337" accel="1.0" decel="5.0" sigma="0.0" length="4.5" maxSpeed="1.7954150701923157" /><vType id="vType_car_3.9431260480811554" accel="1.0" decel="5.0" sigma="0.0" length="4.5" maxSpeed="1.0953127911336542" /><vType id="vType_car_8.292629548718816" accel="1.0" decel="5.0" sigma="0.0" length="4.5" maxSpeed="2.303508207977449" /><vType id="vType_car_16.56434756755208" accel="1.0" decel="5.0" sigma="0.0" length="4.5" maxSpeed="4.601207657653355" /><vType id="vType_car_18.74333618661976" accel="1.0" decel="5.0" sigma="0.0" length="4.5" maxSpeed="5.206482274061044" /><vType id="vType_car_40.31738571491979" accel="1.0" decel="5.0" sigma="0.0" length="4.5" maxSpeed="11.19927380969994" /><vType id="vType_car_19.234936690530624" accel="1.0" decel="5.0" sigma="0.0" length="4.5" maxSpeed="5.3430379695918395" /><vType id="vType_car_7.158932625901526" accel="1.0" decel="5.0" sigma="0.0" length="4.5" maxSpeed="1.9885923960837573" /><vType id="vType_car_13.63427761403531" accel="1.0" decel="5.0" sigma="0.0" length="4.5" maxSpeed="3.7872993372320307" /><vType id="vType_car_5.777244406690775" accel="1.0" decel="5.0" sigma="0.0" length="4.5" maxSpeed="1.6047901129696596" /><vType id="vType_car_6.715216811580236" accel="1.0" decel="5.0" sigma="0.0" length="4.5" maxSpeed="1.8653380032167322" /><vType id="vType_car_7.242002359133851" accel="1.0" decel="5.0" sigma="0.0" length="4.5" maxSpeed="2.011667321981625" /><vType id="vType_car_3.777726317540352" accel="1.0" decel="5.0" sigma="0.0" length="4.5" maxSpeed="1.0493684215389867" /><vType id="vType_car_9.030541704919067" accel="1.0" decel="5.0" sigma="0.0" length="4.5" maxSpeed="2.508483806921963" /><vType id="vType_car_4.008606213246436" accel="1.0" decel="5.0" sigma="0.0" length="4.5" maxSpeed="1.1135017259017876" /><vType id="vType_car_22.06875829456943" accel="1.0" decel="5.0" sigma="0.0" length="4.5" maxSpeed="6.130210637380397" /><vType id="vType_car_8.596565159543884" accel="1.0" decel="5.0" sigma="0.0" length="4.5" maxSpeed="2.3879347665399675" /><vType id="vType_car_3.6747419179477694" accel="1.0" decel="5.0" sigma="0.0" length="4.5" maxSpeed="1.0207616438743803" /><vType id="vType_car_6.108869946342495" accel="1.0" decel="5.0" sigma="0.0" length="4.5" maxSpeed="1.6969083184284708" /><vType id="vType_car_6.644339282954851" accel="1.0" decel="5.0" sigma="0.0" length="4.5" maxSpeed="1.845649800820792" /><vType id="vType_car_37.20999266910449" accel="1.0" decel="5.0" sigma="0.0" length="4.5" maxSpeed="10.336109074751246" /><vType id="vType_car_8.804402049857055" accel="1.0" decel="5.0" sigma="0.0" length="4.5" maxSpeed="2.445667236071404" /><vType id="vType_car_44.15589040508237" accel="1.0" decel="5.0" sigma="0.0" length="4.5" maxSpeed="12.26552511252288" /><vType id="vType_car_26.860645966827455" accel="1.0" decel="5.0" sigma="0.0" length="4.5" maxSpeed="7.46129054634096" /><vType id="vType_car_46.34556101958253" accel="1.0" decel="5.0" sigma="0.0" length="4.5" maxSpeed="12.873766949884036" /><vType id="vType_car_48.901536227082495" accel="1.0" decel="5.0" sigma="0.0" length="4.5" maxSpeed="13.58376006307847" /><vType id="vType_car_11.97271271361054" accel="1.0" decel="5.0" sigma="0.0" length="4.5" maxSpeed="3.325753531558483" /><vType id="vType_car_28.634469463239355" accel="1.0" decel="5.0" sigma="0.0" length="4.5" maxSpeed="7.954019295344265" /><vType id="vType_car_30.35112641653931" accel="1.0" decel="5.0" sigma="0.0" length="4.5" maxSpeed="8.430868449038696" /><vType id="vType_car_56.04388997547528" accel="1.0" decel="5.0" sigma="0.0" length="4.5" maxSpeed="15.567747215409799" /><vType id="vType_car_3.695342796234142" accel="1.0" decel="5.0" sigma="0.0" length="4.5" maxSpeed="1.0264841100650395" /><vType id="vType_truck_40.21720474862905" accel="1.0" decel="5.0" sigma="0.0" length="8" maxSpeed="11.17144576350807" /><vType id="vType_car_31.09314131215763" accel="1.0" decel="5.0" sigma="0.0" length="4.5" maxSpeed="8.636983697821563" /><vType id="vType_car_12.19093694072499" accel="1.0" decel="5.0" sigma="0.0" length="4.5" maxSpeed="3.3863713724236084" /><vType id="vType_car_32.87542300002588" accel="1.0" decel="5.0" sigma="0.0" length="4.5" maxSpeed="9.132061944451634" /><vType id="vType_car_31.79737677381058" accel="1.0" decel="5.0" sigma="0.0" length="4.5" maxSpeed="8.832604659391828" /><vType id="vType_car_7.768555777723897" accel="1.0" decel="5.0" sigma="0.0" length="4.5" maxSpeed="2.15793216047886" /><vType id="vType_car_53.18183564539093" accel="1.0" decel="5.0" sigma="0.0" length="4.5" maxSpeed="14.772732123719702" /><vType id="vType_car_34.632164755311145" accel="1.0" decel="5.0" sigma="0.0" length="4.5" maxSpeed="9.620045765364207" /><vType id="vType_car_37.840029165155926" accel="1.0" decel="5.0" sigma="0.0" length="4.5" maxSpeed="10.511119212543312" /><vType id="vType_car_34.57662225410199" accel="1.0" decel="5.0" sigma="0.0" length="4.5" maxSpeed="9.60461729280611" /><vType id="vType_car_13.38215236670708" accel="1.0" decel="5.0" sigma="0.0" length="4.5" maxSpeed="3.717264546307522" /><vType id="vType_car_18.285061752232124" accel="1.0" decel="5.0" sigma="0.0" length="4.5" maxSpeed="5.079183820064479" /><vType id="vType_car_6.726748979489435" accel="1.0" decel="5.0" sigma="0.0" length="4.5" maxSpeed="1.8685413831915096" /><vType id="vType_car_64.00958724177731" accel="1.0" decel="5.0" sigma="0.0" length="4.5" maxSpeed="17.780440900493698" /><vType id="vType_car_44.437172382544844" accel="1.0" decel="5.0" sigma="0.0" length="4.5" maxSpeed="12.343658995151346" /><vType id="vType_car_32.52978547022022" accel="1.0" decel="5.0" sigma="0.0" length="4.5" maxSpeed="9.036051519505616" /><vType id="vType_car_66.6803333961362" accel="1.0" decel="5.0" sigma="0.0" length="4.5" maxSpeed="18.522314832260058" /><vType id="vType_car_8.174671040339902" accel="1.0" decel="5.0" sigma="0.0" length="4.5" maxSpeed="2.2707419556499726" /><vType id="vType_car_21.102166166482192" accel="1.0" decel="5.0" sigma="0.0" length="4.5" maxSpeed="5.861712824022831" /><vType id="vType_car_8.359590244834884" accel="1.0" decel="5.0" sigma="0.0" length="4.5" maxSpeed="2.3221084013430233" /><vType id="vType_car_25.186015434787926" accel="1.0" decel="5.0" sigma="0.0" length="4.5" maxSpeed="6.9961153985522015" /><vType id="vType_car_17.29581550587441" accel="1.0" decel="5.0" sigma="0.0" length="4.5" maxSpeed="4.804393196076225" /><vType id="vType_car_22.8447734815185" accel="1.0" decel="5.0" sigma="0.0" length="4.5" maxSpeed="6.345770411532917" /><vType id="vType_car_7.158478589083521" accel="1.0" decel="5.0" sigma="0.0" length="4.5" maxSpeed="1.9884662747454225" /><vType id="vType_car_21.58711743659399" accel="1.0" decel="5.0" sigma="0.0" length="4.5" maxSpeed="5.996421510164997" /><vType id="vType_car_26.71440061078084" accel="1.0" decel="5.0" sigma="0.0" length="4.5" maxSpeed="7.42066683632801" /><vType id="vType_car_14.891641380361401" accel="1.0" decel="5.0" sigma="0.0" length="4.5" maxSpeed="4.136567050100389" /><vType id="vType_car_15.903730605391836" accel="1.0" decel="5.0" sigma="0.0" length="4.5" maxSpeed="4.417702945942176" /><vType id="vType_car_20.61097160073923" accel="1.0" decel="5.0" sigma="0.0" length="4.5" maxSpeed="5.72526988909423" /><vType id="vType_car_10.035816550556014" accel="1.0" decel="5.0" sigma="0.0" length="4.5" maxSpeed="2.7877268195988925" /><vType id="vType_car_20.316330774719944" accel="1.0" decel="5.0" sigma="0.0" length="4.5" maxSpeed="5.643425215199985" /><vType id="vType_car_26.758806018875532" accel="1.0" decel="5.0" sigma="0.0" length="4.5" maxSpeed="7.43300167190987" /><vType id="vType_car_22.369441112897967" accel="1.0" decel="5.0" sigma="0.0" length="4.5" maxSpeed="6.213733642471658" /><vType id="vType_car_3.9868277387940236" accel="1.0" decel="5.0" sigma="0.0" length="4.5" maxSpeed="1.1074521496650065" /><vType id="vType_car_19.17100031888059" accel="1.0" decel="5.0" sigma="0.0" length="4.5" maxSpeed="5.325277866355719" /><vType id="vType_car_3.67931518923691" accel="1.0" decel="5.0" sigma="0.0" length="4.5" maxSpeed="1.0220319970102527" /><vType id="vType_car_18.100795984246624" accel="1.0" decel="5.0" sigma="0.0" length="4.5" maxSpeed="5.027998884512951" /><vType id="vType_car_22.08390607786854" accel="1.0" decel="5.0" sigma="0.0" length="4.5" maxSpeed="6.134418354963484" /><vType id="vType_car_17.243822894533157" accel="1.0" decel="5.0" sigma="0.0" length="4.5" maxSpeed="4.789950804036988" /><vType id="vType_car_5.58856047700646" accel="1.0" decel="5.0" sigma="0.0" length="4.5" maxSpeed="1.5523779102795723" /><vType id="vType_car_26.504691864775104" accel="1.0" decel="5.0" sigma="0.0" length="4.5" maxSpeed="7.362414406881973" /><vType id="vType_car_29.78867116328701" accel="1.0" decel="5.0" sigma="0.0" length="4.5" maxSpeed="8.274630878690836" /><vType id="vType_car_16.585669136123837" accel="1.0" decel="5.0" sigma="0.0" length="4.5" maxSpeed="4.607130315589955" /><vType id="vType_car_31.83976517946425" accel="1.0" decel="5.0" sigma="0.0" length="4.5" maxSpeed="8.844379216517847" /><vType id="vType_car_10.82006066368578" accel="1.0" decel="5.0" sigma="0.0" length="4.5" maxSpeed="3.0055724065793834" /><vType id="vType_car_22.187272751947646" accel="1.0" decel="5.0" sigma="0.0" length="4.5" maxSpeed="6.163131319985457" /><vType id="vType_car_16.824989979032477" accel="1.0" decel="5.0" sigma="0.0" length="4.5" maxSpeed="4.673608327509021" /><vType id="vType_car_30.22365586522304" accel="1.0" decel="5.0" sigma="0.0" length="4.5" maxSpeed="8.395459962561956" /><vType id="vType_car_11.025528079705095" accel="1.0" decel="5.0" sigma="0.0" length="4.5" maxSpeed="3.062646688806971" /><vType id="vType_car_17.024292553806834" accel="1.0" decel="5.0" sigma="0.0" length="4.5" maxSpeed="4.728970153835232" /><vType id="vType_car_25.97018125794777" accel="1.0" decel="5.0" sigma="0.0" length="4.5" maxSpeed="7.213939238318825" /><vType id="vType_car_30.936041476502044" accel="1.0" decel="5.0" sigma="0.0" length="4.5" maxSpeed="8.5933448545839" /><vType id="vType_car_27.506670588911764" accel="1.0" decel="5.0" sigma="0.0" length="4.5" maxSpeed="7.640741830253267" /><vType id="vType_car_21.931957879742107" accel="1.0" decel="5.0" sigma="0.0" length="4.5" maxSpeed="6.092210522150586" /><vType id="vType_car_6.917696959179991" accel="1.0" decel="5.0" sigma="0.0" length="4.5" maxSpeed="1.9215824886611086" /><vType id="vType_car_7.371731687822052" accel="1.0" decel="5.0" sigma="0.0" length="4.5" maxSpeed="2.0477032466172367" /><vType id="vType_car_19.004444164346886" accel="1.0" decel="5.0" sigma="0.0" length="4.5" maxSpeed="5.279012267874135" /><vType id="vType_car_36.30961805837512" accel="1.0" decel="5.0" sigma="0.0" length="4.5" maxSpeed="10.086005016215312" /><vType id="vType_car_20.909642258462938" accel="1.0" decel="5.0" sigma="0.0" length="4.5" maxSpeed="5.8082339606841495" /><vType id="vType_car_14.382652934012762" accel="1.0" decel="5.0" sigma="0.0" length="4.5" maxSpeed="3.9951813705591004" /><vType id="vType_car_7.234727220882888" accel="1.0" decel="5.0" sigma="0.0" length="4.5" maxSpeed="2.009646450245247" /><vType id="vType_car_21.48871999434876" accel="1.0" decel="5.0" sigma="0.0" length="4.5" maxSpeed="5.9690888873191" /><vType id="vType_car_10.771552732575907" accel="1.0" decel="5.0" sigma="0.0" length="4.5" maxSpeed="2.9920979812710855" /><vType id="vType_car_25.602590063831073" accel="1.0" decel="5.0" sigma="0.0" length="4.5" maxSpeed="7.111830573286409" /><vType id="vType_car_11.122079784764678" accel="1.0" decel="5.0" sigma="0.0" length="4.5" maxSpeed="3.089466606879077" /><vType id="vType_car_32.38723937225048" accel="1.0" decel="5.0" sigma="0.0" length="4.5" maxSpeed="8.996455381180688" /><vType id="vType_car_8.230417223866764" accel="1.0" decel="5.0" sigma="0.0" length="4.5" maxSpeed="2.2862270066296566" /><vType id="vType_car_21.810435613822868" accel="1.0" decel="5.0" sigma="0.0" length="4.5" maxSpeed="6.058454337173019" /><vType id="vType_car_19.456743366946412" accel="1.0" decel="5.0" sigma="0.0" length="4.5" maxSpeed="5.404650935262892" /><vType id="vType_car_16.4007554253614" accel="1.0" decel="5.0" sigma="0.0" length="4.5" maxSpeed="4.555765395933722" /><vType id="vType_car_21.976694293489654" accel="1.0" decel="5.0" sigma="0.0" length="4.5" maxSpeed="6.1046373037471255" /><vType id="vType_car_19.005276238932996" accel="1.0" decel="5.0" sigma="0.0" length="4.5" maxSpeed="5.27924339970361" /><vType id="vType_car_15.313988640304792" accel="1.0" decel="5.0" sigma="0.0" length="4.5" maxSpeed="4.253885733417998" /><vType id="vType_car_3.579811343920605" accel="1.0" decel="5.0" sigma="0.0" length="4.5" maxSpeed="0.9943920399779459" /><vType id="vType_car_23.875528556162468" accel="1.0" decel="5.0" sigma="0.0" length="4.5" maxSpeed="6.632091265600685" /><vType id="vType_car_17.567007238912723" accel="1.0" decel="5.0" sigma="0.0" length="4.5" maxSpeed="4.879724233031312" /><vType id="vType_car_3.599520126672622" accel="1.0" decel="5.0" sigma="0.0" length="4.5" maxSpeed="0.999866701853506" /><vType id="vType_car_17.72227587681036" accel="1.0" decel="5.0" sigma="0.0" length="4.5" maxSpeed="4.9228544102251" /><vType id="vType_car_16.99077275653668" accel="1.0" decel="5.0" sigma="0.0" length="4.5" maxSpeed="4.719659099037966" /><vType id="vType_car_24.892375570357167" accel="1.0" decel="5.0" sigma="0.0" length="4.5" maxSpeed="6.914548769543657" /><vType id="vType_car_15.286202757069374" accel="1.0" decel="5.0" sigma="0.0" length="4.5" maxSpeed="4.24616743251927" /><vType id="vType_car_24.688498218931272" accel="1.0" decel="5.0" sigma="0.0" length="4.5" maxSpeed="6.857916171925353" /><vType id="vType_car_3.1572424825617422" accel="1.0" decel="5.0" sigma="0.0" length="4.5" maxSpeed="0.877011800711595" /><vType id="vType_car_13.9820286414841" accel="1.0" decel="5.0" sigma="0.0" length="4.5" maxSpeed="3.883896844856694" /><vType id="vType_car_28.30388950526864" accel="1.0" decel="5.0" sigma="0.0" length="4.5" maxSpeed="7.862191529241288" /><vType id="vType_car_17.778955143280005" accel="1.0" decel="5.0" sigma="0.0" length="4.5" maxSpeed="4.938598650911112" /><vType id="vType_car_20.599935029245476" accel="1.0" decel="5.0" sigma="0.0" length="4.5" maxSpeed="5.72220417479041" /><vType id="vType_car_18.060633212711334" accel="1.0" decel="5.0" sigma="0.0" length="4.5" maxSpeed="5.016842559086482" /><vType id="vType_car_26.9563268698933" accel="1.0" decel="5.0" sigma="0.0" length="4.5" maxSpeed="7.487868574970361" /><vType id="vType_car_16.380066447231254" accel="1.0" decel="5.0" sigma="0.0" length="4.5" maxSpeed="4.550018457564237" /><vType id="vType_car_30.9857152178667" accel="1.0" decel="5.0" sigma="0.0" length="4.5" maxSpeed="8.607143116074084" /><vType id="vType_car_13.820856415947674" accel="1.0" decel="5.0" sigma="0.0" length="4.5" maxSpeed="3.839126782207687" /><vType id="vType_car_21.834570976884557" accel="1.0" decel="5.0" sigma="0.0" length="4.5" maxSpeed="6.065158604690154" /><vType id="vType_car_22.848382100564347" accel="1.0" decel="5.0" sigma="0.0" length="4.5" maxSpeed="6.346772805712319" /><vType id="vType_car_37.91808554346658" accel="1.0" decel="5.0" sigma="0.0" length="4.5" maxSpeed="10.532801539851828" /><vType id="vType_car_18.92605826432893" accel="1.0" decel="5.0" sigma="0.0" length="4.5" maxSpeed="5.257238406758036" /><vType id="vType_car_26.486854344465947" accel="1.0" decel="5.0" sigma="0.0" length="4.5" maxSpeed="7.35745954012943" /><vType id="vType_car_16.842015537099567" accel="1.0" decel="5.0" sigma="0.0" length="4.5" maxSpeed="4.678337649194324" /><vType id="vType_car_20.171544210707612" accel="1.0" decel="5.0" sigma="0.0" length="4.5" maxSpeed="5.603206725196559" /><vType id="vType_car_18.511070891191153" accel="1.0" decel="5.0" sigma="0.0" length="4.5" maxSpeed="5.141964136441987" /><vType id="vType_car_25.472350296957277" accel="1.0" decel="5.0" sigma="0.0" length="4.5" maxSpeed="7.07565286026591" /><vType id="vType_car_17.547922936478273" accel="1.0" decel="5.0" sigma="0.0" length="4.5" maxSpeed="4.874423037910631" /><vType id="vType_car_29.969800267191875" accel="1.0" decel="5.0" sigma="0.0" length="4.5" maxSpeed="8.32494451866441" /><vType id="vType_car_20.262108797578232" accel="1.0" decel="5.0" sigma="0.0" length="4.5" maxSpeed="5.628363554882842" /><vType id="vType_car_0.8717829963554659" accel="1.0" decel="5.0" sigma="0.0" length="4.5" maxSpeed="0.24216194343207384" /><vType id="vType_car_20.197277233479173" accel="1.0" decel="5.0" sigma="0.0" length="4.5" maxSpeed="5.610354787077548" /><vType id="vType_car_21.869347496596895" accel="1.0" decel="5.0" sigma="0.0" length="4.5" maxSpeed="6.0748187490546925" /><vType id="vType_car_7.858176843150643" accel="1.0" decel="5.0" sigma="0.0" length="4.5" maxSpeed="2.1828269008751784" /><vType id="vType_car_3.0972713896055826" accel="1.0" decel="5.0" sigma="0.0" length="4.5" maxSpeed="0.8603531637793285" /><vType id="vType_car_11.528425343435678" accel="1.0" decel="5.0" sigma="0.0" length="4.5" maxSpeed="3.202340373176577" /><vType id="vType_car_3.9199795426002595" accel="1.0" decel="5.0" sigma="0.0" length="4.5" maxSpeed="1.0888832062778497" /><vType id="vType_car_3.3661665029394223" accel="1.0" decel="5.0" sigma="0.0" length="4.5" maxSpeed="0.9350462508165062" /><vType id="vType_car_0.8904186321998894" accel="1.0" decel="5.0" sigma="0.0" length="4.5" maxSpeed="0.2473385089444137" /><vType id="vType_car_24.649199638438382" accel="1.0" decel="5.0" sigma="0.0" length="4.5" maxSpeed="6.846999899566217" /><vType id="vType_car_51.17638413251105" accel="1.0" decel="5.0" sigma="0.0" length="4.5" maxSpeed="14.215662259030848" /><vType id="vType_car_23.260001284615903" accel="1.0" decel="5.0" sigma="0.0" length="4.5" maxSpeed="6.461111467948862" /><vType id="vType_car_2.591659819488989" accel="1.0" decel="5.0" sigma="0.0" length="4.5" maxSpeed="0.7199055054136081" /><vType id="vType_car_43.63444888898099" accel="1.0" decel="5.0" sigma="0.0" length="4.5" maxSpeed="12.120680246939164" /><vType id="vType_car_29.571596418626186" accel="1.0" decel="5.0" sigma="0.0" length="4.5" maxSpeed="8.214332338507274" /><vType id="vType_car_35.4824648970701" accel="1.0" decel="5.0" sigma="0.0" length="4.5" maxSpeed="9.85624024918614" /><vType id="vType_car_28.103936497182566" accel="1.0" decel="5.0" sigma="0.0" length="4.5" maxSpeed="7.806649026995157" /><vType id="vType_car_1.9938000009240748" accel="1.0" decel="5.0" sigma="0.0" length="4.5" maxSpeed="0.5538333335900207" /><vType id="vType_car_51.2665735120236" accel="1.0" decel="5.0" sigma="0.0" length="4.5" maxSpeed="14.240714864450998" /><vType id="vType_car_14.246559524283706" accel="1.0" decel="5.0" sigma="0.0" length="4.5" maxSpeed="3.9573776456343626" /><vType id="vType_car_31.35279149115643" accel="1.0" decel="5.0" sigma="0.0" length="4.5" maxSpeed="8.709108747543453" /><vType id="vType_car_7.419869523211313" accel="1.0" decel="5.0" sigma="0.0" length="4.5" maxSpeed="2.061074867558698" /><vType id="vType_car_8.433321