<?xml version='1.0' encoding='utf-8'?>
<routes><vType id="vType_car_7.168835338533966" accel="1.0" decel="5.0" sigma="0.0" length="4.5" maxSpeed="1.9913431495927683" /><vType id="vType_car_14.787766842088745" accel="1.0" decel="5.0" sigma="0.0" length="4.5" maxSpeed="4.107713011691318" /><vType id="vType_car_10.237165595863253" accel="1.0" decel="5.0" sigma="0.0" length="4.5" maxSpeed="2.8436571099620145" /><vType id="vType_car_9.087894697091608" accel="1.0" decel="5.0" sigma="0.0" length="4.5" maxSpeed="2.5244151936365578" /><vType id="vType_car_14.33590328930608" accel="1.0" decel="5.0" sigma="0.0" length="4.5" maxSpeed="3.9821953581405776" /><vType id="vType_car_7.098813391324149" accel="1.0" decel="5.0" sigma="0.0" length="4.5" maxSpeed="1.9718926087011523" /><vType id="vType_car_15.028247860549357" accel="1.0" decel="5.0" sigma="0.0" length="4.5" maxSpeed="4.174513294597044" /><vType id="vType_car_26.52856128577004" accel="1.0" decel="5.0" sigma="0.0" length="4.5" maxSpeed="7.369044801602788" /><vType id="vType_car_17.02674662247915" accel="1.0" decel="5.0" sigma="0.0" length="4.5" maxSpeed="4.729651839577541" /><vType id="vType_car_22.664065134604908" accel="1.0" decel="5.0" sigma="0.0" length="4.5" maxSpeed="6.295573648501363" /><vType id="vType_car_10.716336595677342" accel="1.0" decel="5.0" sigma="0.0" length="4.5" maxSpeed="2.976760165465928" /><vType id="vType_car_8.969260843934011" accel="1.0" decel="5.0" sigma="0.0" length="4.5" maxSpeed="2.491461345537225" /><vType id="vType_car_6.4283245701900364" accel="1.0" decel="5.0" sigma="0.0" length="4.5" maxSpeed="1.7856457139416768" /><vType id="vType_car_7.107138900859261" accel="1.0" decel="5.0" sigma="0.0" length="4.5" maxSpeed="1.9742052502386835" /><vType id="vType_car_2.6436593526186707" accel="1.0" decel="5.0" sigma="0.0" length="4.5" maxSpeed="0.7343498201718529" /><vType id="vType_car_26.979324241830255" accel="1.0" decel="5.0" sigma="0.0" length="4.5" maxSpeed="7.494256733841738" /><vType id="vType_car_3.053079384329505" accel="1.0" decel="5.0" sigma="0.0" length="4.5" maxSpeed="0.8480776067581958" /><vType id="vType_car_5.533179292192034" accel="1.0" decel="5.0" sigma="0.0" length="4.5" maxSpeed="1.5369942478311205" /><vType id="vType_car_2.346506271250642" accel="1.0" decel="5.0" sigma="0.0" length="4.5" maxSpeed="0.6518072975696229" /><vType id="vType_car_15.569909336878538" accel="1.0" decel="5.0" sigma="0.0" length="4.5" maxSpeed="4.324974815799594" /><vType id="vType_car_49.976108746359856" accel="1.0" decel="5.0" sigma="0.0" length="4.5" maxSpeed="13.882252429544405" /><vType id="vType_car_2.766589646096017" accel="1.0" decel="5.0" sigma="0.0" length="4.5" maxSpeed="0.7684971239155602" /><vType id="vType_car_10.834293821776814" accel="1.0" decel="5.0" sigma="0.0" length="4.5" maxSpeed="3.0095260616046704" /><vType id="vType_car_18.786722259285824" accel="1.0" decel="5.0" sigma="0.0" length="4.5" maxSpeed="5.218533960912729" /><vType id="vType_car_10.84692095191116" accel="1.0" decel="5.0" sigma="0.0" length="4.5" maxSpeed="3.0130335977531" /><vType id="vType_car_37.900686043436906" accel="1.0" decel="5.0" sigma="0.0" length="4.5" maxSpeed="10.52796834539914" /><vType id="vType_car_12.044436500744894" accel="1.0" decel="5.0" sigma="0.0" length="4.5" maxSpeed="3.34567680576247" /><vType id="vType_car_9.751874469483099" accel="1.0" decel="5.0" sigma="0.0" length="4.5" maxSpeed="2.7088540193008606" /><vType id="vType_car_2.5435781029138873" accel="1.0" decel="5.0" sigma="0.0" length="4.5" maxSpeed="0.7065494730316354" /><vType id="vType_car_25.054966467952536" accel="1.0" decel="5.0" sigma="0.0" length="4.5" maxSpeed="6.959712907764593" /><vType id="vType_car_18.546723769390137" accel="1.0" decel="5.0" sigma="0.0" length="4.5" maxSpeed="5.151867713719483" /><vType id="vType_car_37.848097513809925" accel="1.0" decel="5.0" sigma="0.0" length="4.5" maxSpeed="10.513360420502757" /><vType id="vType_car_26.76634055929346" accel="1.0" decel="5.0" sigma="0.0" length="4.5" maxSpeed="7.4350945998037385" /><vType id="vType_car_1.8242067674143094" accel="1.0" decel="5.0" sigma="0.0" length="4.5" maxSpeed="0.5067241020595303" /><vType id="vType_car_3.9125485990299684" accel="1.0" decel="5.0" sigma="0.0" length="4.5" maxSpeed="1.0868190552861023" /><vType id="vType_car_5.014899340955948" accel="1.0" decel="5.0" sigma="0.0" length="4.5" maxSpeed="1.3930275947099855" /><vType id="vType_car_22.341012701523475" accel="1.0" decel="5.0" sigma="0.0" length="4.5" maxSpeed="6.205836861534299" /><vType id="vType_car_30.358234798561263" accel="1.0" decel="5.0" sigma="0.0" length="4.5" maxSpeed="8.43284299960035" /><vType id="vType_car_9.267623213831268" accel="1.0" decel="5.0" sigma="0.0" length="4.5" maxSpeed="2.5743397816197966" /><vType id="vType_car_8.322763331643694" accel="1.0" decel="5.0" sigma="0.0" length="4.5" maxSpeed="2.3118787032343593" /><vType id="vType_car_2.4040725479976945" accel="1.0" decel="5.0" sigma="0.0" length="4.5" maxSpeed="0.6677979299993596" /><vType id="vType_car_42.828950166023795" accel="1.0" decel="5.0" sigma="0.0" length="4.5" maxSpeed="11.896930601673276" /><vType id="vType_car_8.925306166111467" accel="1.0" decel="5.0" sigma="0.0" length="4.5" maxSpeed="2.4792517128087406" /><vType id="vType_car_10.158875506029602" accel="1.0" decel="5.0" sigma="0.0" length="4.5" maxSpeed="2.8219098627860006" /><vType id="vType_car_35.81719196365577" accel="1.0" decel="5.0" sigma="0.0" length="4.5" maxSpeed="9.949219989904382" /><vType id="vType_car_14.95779332398038" accel="1.0" decel="5.0" sigma="0.0" length="4.5" maxSpeed="4.15494258999455" /><vType id="vType_car_2.8811855413894114" accel="1.0" decel="5.0" sigma="0.0" length="4.5" maxSpeed="0.8003293170526142" /><vType id="vType_car_3.09479732777029" accel="1.0" decel="5.0" sigma="0.0" length="4.5" maxSpeed="0.859665924380636" /><vType id="vType_car_3.3076849149237253" accel="1.0" decel="5.0" sigma="0.0" length="4.5" maxSpeed="0.9188013652565903" /><vType id="vType_car_2.621293786756149" accel="1.0" decel="5.0" sigma="0.0" length="4.5" maxSpeed="0.7281371629878192" /><vType id="vType_car_2.364442752665383" accel="1.0" decel="5.0" sigma="0.0" length="4.5" maxSpeed="0.6567896535181619" /><vType id="vType_car_0.2305491371746681" accel="1.0" decel="5.0" sigma="0.0" length="4.5" maxSpeed="0.06404142699296336" /><vType id="vType_car_10.033449913926958" accel="1.0" decel="5.0" sigma="0.0" length="4.5" maxSpeed="2.787069420535266" /><vType id="vType_car_3.0744384439481647" accel="1.0" decel="5.0" sigma="0.0" length="4.5" maxSpeed="0.8540106788744901" /><vType id="vType_car_9.115754305001396" accel="1.0" decel="5.0" sigma="0.0" length="4.5" maxSpeed="2.5321539736114986" /><vType id="vType_car_2.858809300965884" accel="1.0" decel="5.0" sigma="0.0" length="4.5" maxSpeed="0.7941136947127456" /><vType id="vType_car_29.9989650981099" accel="1.0" decel="5.0" sigma="0.0" length="4.5" maxSpeed="8.333045860586083" /><vType id="vType_car_16.622709796004216" accel="1.0" decel="5.0" sigma="0.0" length="4.5" maxSpeed="4.6174193877789484" /><vType id="vType_car_2.7665896460960164" accel="1.0" decel="5.0" sigma="0.0" length="4.5" maxSpeed="0.7684971239155601" /><vType id="vType_car_3.1176736549500657" accel="1.0" decel="5.0" sigma="0.0" length="4.5" maxSpeed="0.8660204597083515" /><vType id="vType_car_31.832338179540557" accel="1.0" decel="5.0" sigma="0.0" length="4.5" maxSpeed="8.842316160983488" /><vType id="vType_car_2.612890221312904" accel="1.0" decel="5.0" sigma="0.0" length="4.5" maxSpeed="0.7258028392535845" /><vType id="vType_car_10.004178043283854" accel="1.0" decel="5.0" sigma="0.0" length="4.5" maxSpeed="2.778938345356626" /><vType id="vType_car_15.58944377416055" accel="1.0" decel="5.0" sigma="0.0" length="4.5" maxSpeed="4.33040104837793" /><vType id="vType_car_12.089755901441308" accel="1.0" decel="5.0" sigma="0.0" length="4.5" maxSpeed="3.358265528178141" /><vType id="vType_car_2.2992096463688263" accel="1.0" decel="5.0" sigma="0.0" length="4.5" maxSpeed="0.6386693462135629" /><vType id="vType_car_12.372565029035561" accel="1.0" decel="5.0" sigma="0.0" length="4.5" maxSpeed="3.4368236191765447" /><vType id="vType_car_11.953592660936224" accel="1.0" decel="5.0" sigma="0.0" length="4.5" maxSpeed="3.3204424058156174" /><vType id="vType_car_17.183374147713216" accel="1.0" decel="5.0" sigma="0.0" length="4.5" maxSpeed="4.773159485475893" /><vType id="vType_car_21.60404618114357" accel="1.0" decel="5.0" sigma="0.0" length="4.5" maxSpeed="6.001123939206547" /><vType id="vType_car_7.2879960233885095" accel="1.0" decel="5.0" sigma="0.0" length="4.5" maxSpeed="2.0244433398301416" /><vType id="vType_car_25.38821331608131" accel="1.0" decel="5.0" sigma="0.0" length="4.5" maxSpeed="7.052281476689252" /><vType id="vType_car_2.519539444286473" accel="1.0" decel="5.0" sigma="0.0" length="4.5" maxSpeed="0.6998720678573536" /><vType id="vType_car_19.538352073663564" accel="1.0" decel="5.0" sigma="0.0" length="4.5" maxSpeed="5.427320020462101" /><vType id="vType_bus_24.473135332749223" accel="1.0" decel="5.0" sigma="0.0" length="13" maxSpeed="6.798093147985895" /><vType id="vType_car_31.95685544474379" accel="1.0" decel="5.0" sigma="0.0" length="4.5" maxSpeed="8.876904290206609" /><vType id="vType_car_20.56635041126771" accel="1.0" decel="5.0" sigma="0.0" length="4.5" maxSpeed="5.71287511424103" /><vType id="vType_car_38.958028447868514" accel="1.0" decel="5.0" sigma="0.0" length="4.5" maxSpeed="10.821674568852364" /><vType id="vType_car_20.906621528310446" accel="1.0" decel="5.0" sigma="0.0" length="4.5" maxSpeed="5.807394868975123" /><vType id="vType_car_29.735246063704924" accel="1.0" decel="5.0" sigma="0.0" length="4.5" maxSpeed="8.259790573251367" /><vType id="vType_car_2.798596683603237" accel="1.0" decel="5.0" sigma="0.0" length="4.5" maxSpeed="0.7773879676675658" /><vType id="vType_car_46.69717934300004" accel="1.0" decel="5.0" sigma="0.0" length="4.5" maxSpeed="12.971438706388899" /><vType id="vType_car_17.132554909799854" accel="1.0" decel="5.0" sigma="0.0" length="4.5" maxSpeed="4.759043030499959" /><vType id="vType_car_2.8768566366776036" accel="1.0" decel="5.0" sigma="0.0" length="4.5" maxSpeed="0.7991268435215565" /><vType id="vType_car_28.645180595594187" accel="1.0" decel="5.0" sigma="0.0" length="4.5" maxSpeed="7.956994609887274" /><vType id="vType_car_3.537335138858351" accel="1.0" decel="5.0" sigma="0.0" length="4.5" maxSpeed="0.9825930941273198" /><vType id="vType_car_5.268758298748651" accel="1.0" decel="5.0" sigma="0.0" length="4.5" maxSpeed="1.4635439718746253" /><vType id="vType_car_6.601440886802964" accel="1.0" decel="5.0" sigma="0.0" length="4.5" maxSpeed="1.8337335796674898" /><vType id="vType_car_6.117040308668047" accel="1.0" decel="5.0" sigma="0.0" length="4.5" maxSpeed="1.6991778635189019" /><vType id="vType_car_24.233135919152286" accel="1.0" decel="5.0" sigma="0.0" length="4.5" maxSpeed="6.731426644208968" /><vType id="vType_car_24.340128787793805" accel="1.0" decel="5.0" sigma="0.0" length="4.5" maxSpeed="6.761146885498279" /><vType id="vType_car_32.37641132825887" accel="1.0" decel="5.0" sigma="0.0" length="4.5" maxSpeed="8.993447591183019" /><vType id="vType_car_2.957582804918342" accel="1.0" decel="5.0" sigma="0.0" length="4.5" maxSpeed="0.8215507791439839" /><vType id="vType_car_4.005884728138146" accel="1.0" decel="5.0" sigma="0.0" length="4.5" maxSpeed="1.1127457578161517" /><vType id="vType_car_24.899306814864158" accel="1.0" decel="5.0" sigma="0.0" length="4.5" maxSpeed="6.916474115240043" /><vType id="vType_truck_51.600706124369545" accel="1.0" decel="5.0" sigma="0.0" length="8" maxSpeed="14.33352947899154" /><vType id="vType_car_15.61795046033446" accel="1.0" decel="5.0" sigma="0.0" length="4.5" maxSpeed="4.338319572315128" /><vType id="vType_car_2.8524252659506115" accel="1.0" decel="5.0" sigma="0.0" length="4.5" maxSpeed="0.7923403516529476" /><vType id="vType_car_2.5654596431050876" accel="1.0" decel="5.0" sigma="0.0" length="4.5" maxSpeed="0.7126276786403021" /><vType id="vType_car_7.704522177906082" accel="1.0" decel="5.0" sigma="0.0" length="4.5" maxSpeed="2.140145049418356" /><vType id="vType_car_3.478076653379981" accel="1.0" decel="5.0" sigma="0.0" length="4.5" maxSpeed="0.9661324037166613" /><vType id="vType_car_3.31990757531522" accel="1.0" decel="5.0" sigma="0.0" length="4.5" maxSpeed="0.9221965486986722" /><vType id="vType_truck_3.9125485990299684" accel="1.0" decel="5.0" sigma="0.0" length="8" maxSpeed="1.0868190552861023" /><vType id="vType_car_3.1460798410129085" accel="1.0" decel="5.0" sigma="0.0" length="4.5" maxSpeed="0.8739110669480301" /><vType id="vType_car_15.749474251779331" accel="1.0" decel="5.0" sigma="0.0" length="4.5" maxSpeed="4.374853958827591" /><vType id="vType_car_3.5699988123682718" accel="1.0" decel="5.0" sigma="0.0" length="4.5" maxSpeed="0.9916663367689643" /><vType id="vType_car_20.99509251290656" accel="1.0" decel="5.0" sigma="0.0" length="4.5" maxSpeed="5.831970142474044" /><vType id="vType_car_2.5183059599079125" accel="1.0" decel="5.0" sigma="0.0" length="4.5" maxSpeed="0.6995294333077534" /><vType id="vType_truck_20.155665966296638" accel="1.0" decel="5.0" sigma="0.0" length="8" maxSpeed="5.598796101749066" /><vType id="vType_car_3.601821980598527" accel="1.0" decel="5.0" sigma="0.0" length="4.5" maxSpeed="1.000506105721813" /><vType id="vType_car_4.16437513641955" accel="1.0" decel="5.0" sigma="0.0" length="4.5" maxSpeed="1.1567708712276528" /><vType id="vType_car_4.494253874990443" accel="1.0" decel="5.0" sigma="0.0" length="4.5" maxSpeed="1.248403854164012" /><vType id="vType_car_23.63775229800107" accel="1.0" decel="5.0" sigma="0.0" length="4.5" maxSpeed="6.566042305000297" /><vType id="vType_car_3.8562417943982283" accel="1.0" decel="5.0" sigma="0.0" length="4.5" maxSpeed="1.0711782762217301" /><vType id="vType_car_8.445478927768187" accel="1.0" decel="5.0" sigma="0.0" length="4.5" maxSpeed="2.3459663688244965" /><vType id="vType_bus_14.123823664686164" accel="1.0" decel="5.0" sigma="0.0" length="13" maxSpeed="3.923284351301712" /><vType id="vType_truck_30.19591396545546" accel="1.0" decel="5.0" sigma="0.0" length="8" maxSpeed="8.387753879293184" /><vType id="vType_car_23.744942926110305" accel="1.0" decel="5.0" sigma="0.0" length="4.5" maxSpeed="6.595817479475085" /><vType id="vType_car_16.772596817629022" accel="1.0" decel="5.0" sigma="0.0" length="4.5" maxSpeed="4.659054671563617" /><vType id="vType_car_0.6916474115240042" accel="1.0" decel="5.0" sigma="0.0" length="4.5" maxSpeed="0.19212428097889006" /><vType id="vType_car_20.014228929392274" accel="1.0" decel="5.0" sigma="0.0" length="4.5" maxSpeed="5.559508035942298" /><vType id="vType_car_5.631795525138311" accel="1.0" decel="5.0" sigma="0.0" length="4.5" maxSpeed="1.564387645871753" /><vType id="vType_car_51.01339247453685" accel="1.0" decel="5.0" sigma="0.0" length="4.5" maxSpeed="14.170386798482458" /><vType id="vType_car_42.054417045917134" accel="1.0" decel="5.0" sigma="0.0" length="4.5" maxSpeed="11.68178251275476" /><vType id="vType_car_17.58409346031081" accel="1.0" decel="5.0" sigma="0.0" length="4.5" maxSpeed="4.884470405641892" /><vType id="vType_car_37.02869471274459" accel="1.0" decel="5.0" sigma="0.0" length="4.5" maxSpeed="10.28574853131794" /><vType id="vType_car_37.40562889529108" accel="1.0" decel="5.0" sigma="0.0" length="4.5" maxSpeed="10.39045247091419" /><vType id="vType_car_37.46917198187956" accel="1.0" decel="5.0" sigma="0.0" length="4.5" maxSpeed="10.408103328299878" /><vType id="vType_car_1.7541989685473822" accel="1.0" decel="5.0" sigma="0.0" length="4.5" maxSpeed="0.4872774912631617" /><vType id="vType_car_19.4343365485005" accel="1.0" decel="5.0" sigma="0.0" length="4.5" maxSpeed="5.398426819027916" /><vType id="vType_truck_4.315067102223223" accel="1.0" decel="5.0" sigma="0.0" length="8" maxSpeed="1.1986297506175618" /><vType id="vType_car_2.6216480937444255" accel="1.0" decel="5.0" sigma="0.0" length="4.5" maxSpeed="0.7282355815956737" /><vType id="vType_car_24.444941222785545" accel="1.0" decel="5.0" sigma="0.0" length="4.5" maxSpeed="6.790261450773762" /><vType id="vType_bus_3.6394755350783665" accel="1.0" decel="5.0" sigma="0.0" length="13" maxSpeed="1.0109654264106573" /><vType id="vType_car_10.349532201870524" accel="1.0" decel="5.0" sigma="0.0" length="4.5" maxSpeed="2.8748700560751455" /><vType id="vType_car_9.838459315190367" accel="1.0" decel="5.0" sigma="0.0" length="4.5" maxSpeed="2.7329053653306574" /><route id="route_north_to_east" edges="north_to_center center_to_east" /><route id="route_north_to_south" edges="north_to_center center_to_south" /><route id="route_north_to_west" edges="north_to_center center_to_west" /><route id="route_east_to_west" edges="east_to_center center_to_west" /><route id="route_east_to_south" edges="east_to_center center_to_south" /><route id="route_east_to_north" edges="east_to_center center_to_north" /><route id="route_south_to_west" edges="south_to_center center_to_west" /><route id="route_south_to_north" edges="south_to_center center_to_north" /><route id="route_south_to_east" edges="south_to_center center_to_east" /><route id="route_west_to_south" edges="west_to_center center_to_south" /><route id="route_west_to_north" edges="west_to_center center_to_north" /><route id="route_west_to_east" edges="west_to_center center_to_east" /><vehicle id="veh22" type="vType_car_7.168835338533966" route="route_west_to_north" depart="0.05" /><vehicle id="veh200" type="vType_car_14.787766842088745" route="route_north_to_south" depart="0.05" /><vehicle id="veh201" type="vType_car_10.237165595863253" route="route_north_to_east" depart="0.05" /><vehicle id="veh213" type="vType_car_9.087894697091608" route="route_south_to_north" depart="0.05" /><vehicle id="veh203" type="vType_car_14.33590328930608" route="route_east_to_south" depart="0.05" /><vehicle id="veh216" type="vType_car_7.098813391324149" route="route_west_to_north" depart="0.05" /><vehicle id="veh92" type="vType_car_15.028247860549357" route="route_south_to_west" depart="0.05" /><vehicle id="veh223" type="vType_car_26.52856128577004" route="route_east_to_west" depart="0.05" /><vehicle id="veh202" type="vType_car_17.02674662247915" route="route_east_to_south" depart="0.05" /><vehicle id="veh187" type="vType_car_22.664065134604908" route="route_east_to_south" depart="0.05" /><vehicle id="veh221" type="vType_car_10.716336595677342" route="route_east_to_north" depart="0.05" /><vehicle id="veh224" type="vType_car_8.969260843934011" route="route_north_to_west" depart="0.05" /><vehicle id="veh229" type="vType_car_26.979324241830255" route="route_east_to_west" depart="2.19" /><vehicle id="veh240" type="vType_car_15.569909336878538" route="route_south_to_east" depart="3.60" /><vehicle id="veh243" type="vType_car_49.976108746359856" route="route_east_to_west" depart="4.69" /><vehicle id="veh248" type="vType_car_10.834293821776814" route="route_east_to_north" depart="5.65" /><vehicle id="veh250" type="vType_car_18.786722259285824" route="route_east_to_south" depart="6.33" /><vehicle id="veh251" type="vType_car_10.84692095191116" route="route_west_to_east" depart="6.97" /><vehicle id="veh254" type="vType_car_37.900686043436906" route="route_east_to_west" depart="8.79" /><vehicle id="veh264" type="vType_car_25.054966467952536" route="route_east_to_west" depart="10.16" /><vehicle id="veh265" type="vType_car_18.546723769390137" route="route_south_to_east" depart="10.34" /><vehicle id="veh268" type="vType_car_26.76634055929346" route="route_east_to_west" depart="12.43" /><vehicle id="veh276" type="vType_car_22.341012701523475" route="route_east_to_south" depart="14.21" /><vehicle id="veh278" type="vType_car_30.358234798561263" route="route_east_to_west" depart="15.26" /><vehicle id="veh285" type="vType_car_42.828950166023795" route="route_east_to_west" depart="19.58" /><vehicle id="veh289" type="vType_car_10.158875506029602" route="route_north_to_east" depart="22.77" /><vehicle id="veh290" type="vType_car_35.81719196365577" route="route_east_to_south" depart="23.04" /><vehicle id="veh303" type="vType_car_10.033449913926958" route="route_south_to_north" depart="29.74" /><vehicle id="veh308" type="vType_car_9.115754305001396" route="route_west_to_south" depart="33.16" /><vehicle id="veh310" type="vType_car_29.9989650981099" route="route_south_to_west" depart="33.88" /><vehicle id="veh311" type="vType_car_16.622709796004216" route="route_north_to_south" depart="33.98" /><vehicle id="veh315" type="vType_car_31.832338179540557" route="route_south_to_west" depart="36.80" /><vehicle id="veh321" type="vType_car_15.58944377416055" route="route_north_to_west" depart="48.91" /><vehicle id="veh323" type="vType_car_12.089755901441308" route="route_north_to_south" depart="49.46" /><vehicle id="veh330" type="vType_car_11.953592660936224" route="route_west_to_south" depart="52.37" /><vehicle id="veh332" type="vType_car_17.183374147713216" route="route_north_to_south" depart="54.20" /><vehicle id="veh333" type="vType_car_21.60404618114357" route="route_south_to_north" depart="54.74" /><vehicle id="veh335" type="vType_car_7.2879960233885095" route="route_south_to_east" depart="55.43" /><vehicle id="veh339" type="vType_car_25.38821331608131" route="route_south_to_north" depart="60.16" /><vehicle id="veh342" type="vType_car_19.538352073663564" route="route_north_to_south" depart="62.85" /><vehicle id="veh343" type="vType_bus_24.473135332749223" route="route_north_to_south" depart="63.94" /><vehicle id="veh344" type="vType_car_31.95685544474379" route="route_south_to_north" depart="63.94" /><vehicle id="veh345" type="vType_car_20.56635041126771" route="route_north_to_south" depart="66.54" /><vehicle id="veh347" type="vType_car_20.906621528310446" route="route_north_to_south" depart="69.00" /><vehicle id="veh348" type="vType_car_29.735246063704924" route="route_south_to_north" depart="71.00" /><vehicle id="veh354" type="vType_car_17.132554909799854" route="route_south_to_east" depart="76.29" /><vehicle id="veh373" type="vType_car_24.233135919152286" route="route_south_to_west" depart="84.76" /><vehicle id="veh375" type="vType_car_32.37641132825887" route="route_north_to_south" depart="84.76" /><vehicle id="veh382" type="vType_truck_51.600706124369545" route="route_south_to_north" depart="86.53" /><vehicle id="veh384" type="vType_car_15.61795046033446" route="route_west_to_south" depart="88.86" /><vehicle id="veh324" type="vType_car_15.749474251779331" route="route_west_to_east" depart="92.86" /><vehicle id="veh400" type="vType_car_20.99509251290656" route="route_west_to_east" depart="93.82" /><vehicle id="veh414" type="vType_bus_14.123823664686164" route="route_west_to_north" depart="100.10" /><vehicle id="veh417" type="vType_truck_30.19591396545546" route="route_west_to_east" depart="102.75" /><vehicle id="veh418" type="vType_car_23.744942926110305" route="route_west_to_east" depart="103.25" /><vehicle id="veh419" type="vType_car_16.772596817629022" route="route_west_to_north" depart="103.29" /><vehicle id="veh429" type="vType_car_42.054417045917134" route="route_west_to_east" depart="108.26" /><vehicle id="veh430" type="vType_car_17.58409346031081" route="route_west_to_north" depart="108.71" /><vehicle id="veh432" type="vType_car_37.02869471274459" route="route_west_to_east" depart="109.44" /><vehicle id="veh433" type="vType_car_37.40562889529108" route="route_west_to_east" depart="109.58" /><vehicle id="veh435" type="vType_car_37.46917198187956" route="route_west_to_east" depart="112.49" /></routes>