<?xml version="1.0" encoding="utf-8"?>
<routes>
	<vType id="vType_car_28.26594284222926" accel="1.0" decel="5.0" sigma="0.0" length="4.5" maxSpeed="7.851650789508128" />
	<vType id="vType_car_9.484856468490955" accel="1.0" decel="5.0" sigma="0.0" length="4.5" maxSpeed="2.6346823523585985" />
	<vType id="vType_car_13.53990569859582" accel="1.0" decel="5.0" sigma="0.0" length="4.5" maxSpeed="3.7610849162766167" />
	<vType id="vType_car_9.926141698037322" accel="1.0" decel="5.0" sigma="0.0" length="4.5" maxSpeed="2.757261582788145" />
	<vType id="vType_car_24.828935072970364" accel="1.0" decel="5.0" sigma="0.0" length="4.5" maxSpeed="6.896926409158434" />
	<vType id="vType_car_9.675349372201797" accel="1.0" decel="5.0" sigma="0.0" length="4.5" maxSpeed="2.6875970478338327" />
	<vType id="vType_car_8.986323173319967" accel="1.0" decel="5.0" sigma="0.0" length="4.5" maxSpeed="2.4962008814777685" />
	<vType id="vType_car_10.071848610730562" accel="1.0" decel="5.0" sigma="0.0" length="4.5" maxSpeed="2.797735725202934" />
	<vType id="vType_car_46.69946035236279" accel="1.0" decel="5.0" sigma="0.0" length="4.5" maxSpeed="12.972072320100775" />
	<vType id="vType_car_34.3948400294439" accel="1.0" decel="5.0" sigma="0.0" length="4.5" maxSpeed="9.554122230401083" />
	<vType id="vType_car_3.6836136080051327" accel="1.0" decel="5.0" sigma="0.0" length="4.5" maxSpeed="1.023226002223648" />
	<vType id="vType_car_38.19790260333015" accel="1.0" decel="5.0" sigma="0.0" length="4.5" maxSpeed="10.61052850092504" />
	<vType id="vType_car_43.48547774470627" accel="1.0" decel="5.0" sigma="0.0" length="4.5" maxSpeed="12.079299373529519" />
	<vType id="vType_car_49.000279462486255" accel="1.0" decel="5.0" sigma="0.0" length="4.5" maxSpeed="13.611188739579514" />
	<vType id="vType_car_28.57453452095041" accel="1.0" decel="5.0" sigma="0.0" length="4.5" maxSpeed="7.937370700264003" />
	<vType id="vType_car_14.423976485795725" accel="1.0" decel="5.0" sigma="0.0" length="4.5" maxSpeed="4.006660134943257" />
	<vType id="vType_car_41.540625146401595" accel="1.0" decel="5.0" sigma="0.0" length="4.5" maxSpeed="11.539062540667109" />
	<vType id="vType_car_44.23549767314329" accel="1.0" decel="5.0" sigma="0.0" length="4.5" maxSpeed="12.287638242539803" />
	<vType id="vType_car_3.9870454944693963" accel="1.0" decel="5.0" sigma="0.0" length="4.5" maxSpeed="1.10751263735261" />
	<vType id="vType_car_39.38256405208129" accel="1.0" decel="5.0" sigma="0.0" length="4.5" maxSpeed="10.939601125578136" />
	<vType id="vType_car_6.015387013191827" accel="1.0" decel="5.0" sigma="0.0" length="4.5" maxSpeed="1.6709408369977297" />
	<vType id="vType_car_60.559820078635845" accel="1.0" decel="5.0" sigma="0.0" length="4.5" maxSpeed="16.822172244065513" />
	<vType id="vType_car_29.62462002883228" accel="1.0" decel="5.0" sigma="0.0" length="4.5" maxSpeed="8.229061119120077" />
	<vType id="vType_car_37.746896618150885" accel="1.0" decel="5.0" sigma="0.0" length="4.5" maxSpeed="10.485249060597468" />
	<vType id="vType_car_38.54676947698155" accel="1.0" decel="5.0" sigma="0.0" length="4.5" maxSpeed="10.707435965828209" />
	<vType id="vType_car_19.899391422389805" accel="1.0" decel="5.0" sigma="0.0" length="4.5" maxSpeed="5.527608728441613" />
	<vType id="vType_car_12.290208073412298" accel="1.0" decel="5.0" sigma="0.0" length="4.5" maxSpeed="3.4139466870589716" />
	<vType id="vType_car_2.859392275886562" accel="1.0" decel="5.0" sigma="0.0" length="4.5" maxSpeed="0.7942756321907117" />
	<vType id="vType_car_21.568764895880378" accel="1.0" decel="5.0" sigma="0.0" length="4.5" maxSpeed="5.991323582188993" />
	<vType id="vType_car_10.153013732840444" accel="1.0" decel="5.0" sigma="0.0" length="4.5" maxSpeed="2.8202815924556788" />
	<vType id="vType_truck_83.37725524419832" accel="1.0" decel="5.0" sigma="0.0" length="8" maxSpeed="23.16034867894398" />
	<vType id="vType_car_7.958196730490643" accel="1.0" decel="5.0" sigma="0.0" length="4.5" maxSpeed="2.2106102029140673" />
	<vType id="vType_truck_94.01194990597088" accel="1.0" decel="5.0" sigma="0.0" length="8" maxSpeed="26.114430529436355" />
	<vType id="vType_car_2.7406805450926135" accel="1.0" decel="5.0" sigma="0.0" length="4.5" maxSpeed="0.7613001514146148" />
	<vType id="vType_car_77.81753840911914" accel="1.0" decel="5.0" sigma="0.0" length="4.5" maxSpeed="21.615982891421982" />
	<vType id="vType_car_12.042563701098361" accel="1.0" decel="5.0" sigma="0.0" length="4.5" maxSpeed="3.3451565836384334" />
	<vType id="vType_truck_15.61850191119713" accel="1.0" decel="5.0" sigma="0.0" length="8" maxSpeed="4.338472753110314" />
	<vType id="vType_car_18.135823430322883" accel="1.0" decel="5.0" sigma="0.0" length="4.5" maxSpeed="5.037728730645245" />
	<vType id="vType_car_69.908941275781" accel="1.0" decel="5.0" sigma="0.0" length="4.5" maxSpeed="19.41915035438361" />
	<vType id="vType_car_50.48775612816233" accel="1.0" decel="5.0" sigma="0.0" length="4.5" maxSpeed="14.024376702267315" />
	<vType id="vType_car_62.508898875735625" accel="1.0" decel="5.0" sigma="0.0" length="4.5" maxSpeed="17.363583021037673" />
	<vType id="vType_car_42.36663411619575" accel="1.0" decel="5.0" sigma="0.0" length="4.5" maxSpeed="11.768509476721041" />
	<vType id="vType_car_15.7770769535612" accel="1.0" decel="5.0" sigma="0.0" length="4.5" maxSpeed="4.3825213759892225" />
	<vType id="vType_car_47.744426053278936" accel="1.0" decel="5.0" sigma="0.0" length="4.5" maxSpeed="13.26234057035526" />
	<vType id="vType_car_55.40711737367292" accel="1.0" decel="5.0" sigma="0.0" length="4.5" maxSpeed="15.390865937131366" />
	<vType id="vType_car_15.916665195527095" accel="1.0" decel="5.0" sigma="0.0" length="4.5" maxSpeed="4.421295887646415" />
	<vType id="vType_car_62.180624227225216" accel="1.0" decel="5.0" sigma="0.0" length="4.5" maxSpeed="17.27239561867367" />
	<vType id="vType_car_74.62434738162078" accel="1.0" decel="5.0" sigma="0.0" length="4.5" maxSpeed="20.72898538378355" />
	<vType id="vType_car_48.01346609210343" accel="1.0" decel="5.0" sigma="0.0" length="4.5" maxSpeed="13.337073914473175" />
	<vType id="vType_car_21.63247158507841" accel="1.0" decel="5.0" sigma="0.0" length="4.5" maxSpeed="6.009019884744003" />
	<vType id="vType_car_41.26367493673616" accel="1.0" decel="5.0" sigma="0.0" length="4.5" maxSpeed="11.462131926871155" />
	<vType id="vType_car_57.45943219635725" accel="1.0" decel="5.0" sigma="0.0" length="4.5" maxSpeed="15.960953387877012" />
	<vType id="vType_car_35.08670714376474" accel="1.0" decel="5.0" sigma="0.0" length="4.5" maxSpeed="9.74630753993465" />
	<vType id="vType_car_4.253520948489433" accel="1.0" decel="5.0" sigma="0.0" length="4.5" maxSpeed="1.1815335968026202" />
	<vType id="vType_car_40.96928938310897" accel="1.0" decel="5.0" sigma="0.0" length="4.5" maxSpeed="11.380358161974714" />
	<vType id="vType_car_59.57189173016899" accel="1.0" decel="5.0" sigma="0.0" length="4.5" maxSpeed="16.54774770282472" />
	<vType id="vType_car_12.20714273530206" accel="1.0" decel="5.0" sigma="0.0" length="4.5" maxSpeed="3.39087298202835" />
	<vType id="vType_car_46.43456938893145" accel="1.0" decel="5.0" sigma="0.0" length="4.5" maxSpeed="12.898491496925402" />
	<vType id="vType_car_29.57863461288168" accel="1.0" decel="5.0" sigma="0.0" length="4.5" maxSpeed="8.216287392467132" />
	<vType id="vType_car_3.5237321294047885" accel="1.0" decel="5.0" sigma="0.0" length="4.5" maxSpeed="0.978814480390219" />
	<vType id="vType_car_39.83796833115553" accel="1.0" decel="5.0" sigma="0.0" length="4.5" maxSpeed="11.06610231420987" />
	<vType id="vType_car_33.554641322321665" accel="1.0" decel="5.0" sigma="0.0" length="4.5" maxSpeed="9.320733700644906" />
	<vType id="vType_car_48.94751941318751" accel="1.0" decel="5.0" sigma="0.0" length="4.5" maxSpeed="13.596533170329863" />
	<vType id="vType_car_12.337170878214014" accel="1.0" decel="5.0" sigma="0.0" length="4.5" maxSpeed="3.426991910615004" />
	<vType id="vType_car_49.15819745914355" accel="1.0" decel="5.0" sigma="0.0" length="4.5" maxSpeed="13.655054849762097" />
	<vType id="vType_car_4.146645850351549" accel="1.0" decel="5.0" sigma="0.0" length="4.5" maxSpeed="1.151846069542097" />
	<vType id="vType_car_3.885140552933485" accel="1.0" decel="5.0" sigma="0.0" length="4.5" maxSpeed="1.0792057091481904" />
	<vType id="vType_car_18.90568297517073" accel="1.0" decel="5.0" sigma="0.0" length="4.5" maxSpeed="5.2515786042140915" />
	<vType id="vType_car_17.634379210772636" accel="1.0" decel="5.0" sigma="0.0" length="4.5" maxSpeed="4.898438669659066" />
	<vType id="vType_car_43.75881173405247" accel="1.0" decel="5.0" sigma="0.0" length="4.5" maxSpeed="12.155225481681242" />
	<vType id="vType_car_17.71765715875454" accel="1.0" decel="5.0" sigma="0.0" length="4.5" maxSpeed="4.921571432987372" />
	<vType id="vType_car_4.4737783481758" accel="1.0" decel="5.0" sigma="0.0" length="4.5" maxSpeed="1.242716207826611" />
	<vType id="vType_car_24.339693043183424" accel="1.0" decel="5.0" sigma="0.0" length="4.5" maxSpeed="6.761025845328729" />
	<vType id="vType_car_7.753363713125936" accel="1.0" decel="5.0" sigma="0.0" length="4.5" maxSpeed="2.153712142534982" />
	<vType id="vType_car_17.44670850083968" accel="1.0" decel="5.0" sigma="0.0" length="4.5" maxSpeed="4.846307916899911" />
	<vType id="vType_car_9.206979987405566" accel="1.0" decel="5.0" sigma="0.0" length="4.5" maxSpeed="2.5574944409459905" />
	<vType id="vType_car_4.1685568454510395" accel="1.0" decel="5.0" sigma="0.0" length="4.5" maxSpeed="1.1579324570697331" />
	<vType id="vType_car_16.509506124429894" accel="1.0" decel="5.0" sigma="0.0" length="4.5" maxSpeed="4.585973923452748" />
	<vType id="vType_car_13.60819390932077" accel="1.0" decel="5.0" sigma="0.0" length="4.5" maxSpeed="3.7800538637002137" />
	<vType id="vType_car_19.23521298273546" accel="1.0" decel="5.0" sigma="0.0" length="4.5" maxSpeed="5.343114717426517" />
	<vType id="vType_car_22.036478461951443" accel="1.0" decel="5.0" sigma="0.0" length="4.5" maxSpeed="6.121244017208734" />
	<vType id="vType_car_3.751470627035129" accel="1.0" decel="5.0" sigma="0.0" length="4.5" maxSpeed="1.0420751741764247" />
	<vType id="vType_car_30.27863991058251" accel="1.0" decel="5.0" sigma="0.0" length="4.5" maxSpeed="8.410733308495141" />
	<vType id="vType_car_39.005280305491034" accel="1.0" decel="5.0" sigma="0.0" length="4.5" maxSpeed="10.834800084858621" />
	<vType id="vType_car_37.921233342745325" accel="1.0" decel="5.0" sigma="0.0" length="4.5" maxSpeed="10.533675928540367" />
	<vType id="vType_car_35.08495439483902" accel="1.0" decel="5.0" sigma="0.0" length="4.5" maxSpeed="9.745820665233062" />
	<vType id="vType_car_28.43442718446136" accel="1.0" decel="5.0" sigma="0.0" length="4.5" maxSpeed="7.898451995683711" />
	<vType id="vType_car_3.61495573179037" accel="1.0" decel="5.0" sigma="0.0" length="4.5" maxSpeed="1.0041543699417694" />
	<vType id="vType_car_42.62785749428879" accel="1.0" decel="5.0" sigma="0.0" length="4.5" maxSpeed="11.84107152619133" />
	<vType id="vType_car_14.743972098013774" accel="1.0" decel="5.0" sigma="0.0" length="4.5" maxSpeed="4.095547805003826" />
	<vType id="vType_car_3.9342017076331595" accel="1.0" decel="5.0" sigma="0.0" length="4.5" maxSpeed="1.0928338076758777" />
	<vType id="vType_car_15.302327358019161" accel="1.0" decel="5.0" sigma="0.0" length="4.5" maxSpeed="4.250646488338655" />
	<vType id="vType_car_3.523732129404789" accel="1.0" decel="5.0" sigma="0.0" length="4.5" maxSpeed="0.9788144803902191" />
	<vType id="vType_car_9.360349402763978" accel="1.0" decel="5.0" sigma="0.0" length="4.5" maxSpeed="2.600097056323327" />
	<vType id="vType_car_19.1305227412724" accel="1.0" decel="5.0" sigma="0.0" length="4.5" maxSpeed="5.314034094797889" />
	<vType id="vType_car_6.068877612708497" accel="1.0" decel="5.0" sigma="0.0" length="4.5" maxSpeed="1.6857993368634714" />
	<vType id="vType_car_4.303107073833307" accel="1.0" decel="5.0" sigma="0.0" length="4.5" maxSpeed="1.195307520509252" />
	<vType id="vType_car_0.503390304200684" accel="1.0" decel="5.0" sigma="0.0" length="4.5" maxSpeed="0.13983064005574555" />
	<vType id="vType_car_3.4996394117530802" accel="1.0" decel="5.0" sigma="0.0" length="4.5" maxSpeed="0.9721220588203" />
	<vType id="vType_car_15.336911739714802" accel="1.0" decel="5.0" sigma="0.0" length="4.5" maxSpeed="4.260253261031889" />
	<vType id="vType_car_4.166206431582657" accel="1.0" decel="5.0" sigma="0.0" length="4.5" maxSpeed="1.1572795643285156" />
	<vType id="vType_car_52.013564019727454" accel="1.0" decel="5.0" sigma="0.0" length="4.5" maxSpeed="14.44821222770207" />
	<vType id="vType_car_24.440625399465908" accel="1.0" decel="5.0" sigma="0.0" length="4.5" maxSpeed="6.789062610962752" />
	<vType id="vType_car_11.721674765016617" accel="1.0" decel="5.0" sigma="0.0" length="4.5" maxSpeed="3.2560207680601714" />
	<vType id="vType_car_16.297643704488408" accel="1.0" decel="5.0" sigma="0.0" length="4.5" maxSpeed="4.52712325124678" />
	<vType id="vType_car_3.663794899094863" accel="1.0" decel="5.0" sigma="0.0" length="4.5" maxSpeed="1.0177208053041285" />
	<vType id="vType_car_18.455535516704128" accel="1.0" decel="5.0" sigma="0.0" length="4.5" maxSpeed="5.126537643528924" />
	<vType id="vType_car_24.674213467187265" accel="1.0" decel="5.0" sigma="0.0" length="4.5" maxSpeed="6.853948185329796" />
	<vType id="vType_car_25.395981840067403" accel="1.0" decel="5.0" sigma="0.0" length="4.5" maxSpeed="7.0544394000187225" />
	<vType id="vType_car_24.8334459103625" accel="1.0" decel="5.0" sigma="0.0" length="4.5" maxSpeed="6.898179419545139" />
	<vType id="vType_car_3.1782681951494176" accel="1.0" decel="5.0" sigma="0.0" length="4.5" maxSpeed="0.8828522764303938" />
	<vType id="vType_car_31.248871657797572" accel="1.0" decel="5.0" sigma="0.0" length="4.5" maxSpeed="8.680242127165991" />
	<vType id="vType_car_25.826467530449683" accel="1.0" decel="5.0" sigma="0.0" length="4.5" maxSpeed="7.174018758458245" />
	<vType id="vType_car_3.451119661419002" accel="1.0" decel="5.0" sigma="0.0" length="4.5" maxSpeed="0.9586443503941672" />
	<vType id="vType_car_3.1909336366646297" accel="1.0" decel="5.0" sigma="0.0" length="4.5" maxSpeed="0.8863704546290638" />
	<vType id="vType_car_46.554138162133334" accel="1.0" decel="5.0" sigma="0.0" length="4.5" maxSpeed="12.931705045037036" />
	<vType id="vType_car_4.698309505873051" accel="1.0" decel="5.0" sigma="0.0" length="4.5" maxSpeed="1.3050859738536253" />
	<vType id="vType_car_33.89458793081225" accel="1.0" decel="5.0" sigma="0.0" length="4.5" maxSpeed="9.415163314114514" />
	<vType id="vType_car_4.900898196290902" accel="1.0" decel="5.0" sigma="0.0" length="4.5" maxSpeed="1.3613606100808062" />
	<vType id="vType_car_22.396300569656887" accel="1.0" decel="5.0" sigma="0.0" length="4.5" maxSpeed="6.221194602682468" />
	<vType id="vType_car_35.60078929996559" accel="1.0" decel="5.0" sigma="0.0" length="4.5" maxSpeed="9.889108138879331" />
	<vType id="vType_car_20.620268932286873" accel="1.0" decel="5.0" sigma="0.0" length="4.5" maxSpeed="5.727852481190798" />
	<vType id="vType_car_28.450345099623327" accel="1.0" decel="5.0" sigma="0.0" length="4.5" maxSpeed="7.902873638784257" />
	<vType id="vType_car_3.4962513633563246" accel="1.0" decel="5.0" sigma="0.0" length="4.5" maxSpeed="0.9711809342656457" />
	<vType id="vType_car_34.909702883994235" accel="1.0" decel="5.0" sigma="0.0" length="4.5" maxSpeed="9.697139689998398" />
	<vType id="vType_car_52.96040544856676" accel="1.0" decel="5.0" sigma="0.0" length="4.5" maxSpeed="14.711223735712988" />
	<vType id="vType_car_4.020325343237291" accel="1.0" decel="5.0" sigma="0.0" length="4.5" maxSpeed="1.1167570397881363" />
	<vType id="vType_car_3.35285350611654" accel="1.0" decel="5.0" sigma="0.0" length="4.5" maxSpeed="0.9313481961434833" />
	<vType id="vType_car_35.664670168272984" accel="1.0" decel="5.0" sigma="0.0" length="4.5" maxSpeed="9.906852824520273" />
	<vType id="vType_car_3.621871059355809" accel="1.0" decel="5.0" sigma="0.0" length="4.5" maxSpeed="1.0060752942655025" />
	<vType id="vType_car_20.252088382916465" accel="1.0" decel="5.0" sigma="0.0" length="4.5" maxSpeed="5.6255801063656845" />
	<vType id="vType_car_47.10614365399448" accel="1.0" decel="5.0" sigma="0.0" length="4.5" maxSpeed="13.085039903887354" />
	<vType id="vType_car_18.879883719374362" accel="1.0" decel="5.0" sigma="0.0" length="4.5" maxSpeed="5.244412144270656" />
	<vType id="vType_car_34.640087741397004" accel="1.0" decel="5.0" sigma="0.0" length="4.5" maxSpeed="9.6222465948325" />
	<vType id="vType_car_3.9271329324650868" accel="1.0" decel="5.0" sigma="0.0" length="4.5" maxSpeed="1.0908702590180797" />
	<vType id="vType_car_3.342310449275937" accel="1.0" decel="5.0" sigma="0.0" length="4.5" maxSpeed="0.9284195692433157" />
	<vType id="vType_car_8.21231860780545" accel="1.0" decel="5.0" sigma="0.0" length="4.5" maxSpeed="2.2811996132792918" />
	<vType id="vType_car_35.918247652483394" accel="1.0" decel="5.0" sigma="0.0" length="4.5" maxSpeed="9.97729101457872" />
	<vType id="vType_car_50.117192746535906" accel="1.0" decel="5.0" sigma="0.0" length="4.5" maxSpeed="13.921442429593307" />
	<vType id="vType_car_17.981947038216095" accel="1.0" decel="5.0" sigma="0.0" length="4.5" maxSpeed="4.99498528839336" />
	<vType id="vType_car_4.69353072715845" accel="1.0" decel="5.0" sigma="0.0" length="4.5" maxSpeed="1.3037585353217915" />
	<vType id="vType_car_12.09367641559221" accel="1.0" decel="5.0" sigma="0.0" length="4.5" maxSpeed="3.3593545598867247" />
	<vType id="vType_car_4.5936453895348555" accel="1.0" decel="5.0" sigma="0.0" length="4.5" maxSpeed="1.2760126082041265" />
	<vType id="vType_car_3.4209917899898628" accel="1.0" decel="5.0" sigma="0.0" length="4.5" maxSpeed="0.9502754972194063" />
	<vType id="vType_car_7.740789496358405" accel="1.0" decel="5.0" sigma="0.0" length="4.5" maxSpeed="2.1502193045440015" />
	<vType id="vType_car_11.160626451872583" accel="1.0" decel="5.0" sigma="0.0" length="4.5" maxSpeed="3.100174014409051" />
	<vType id="vType_car_12.79067032820281" accel="1.0" decel="5.0" sigma="0.0" length="4.5" maxSpeed="3.5529639800563357" />
	<vType id="vType_car_4.560002804889319" accel="1.0" decel="5.0" sigma="0.0" length="4.5" maxSpeed="1.2666674458025884" />
	<vType id="vType_car_7.3561995849589925" accel="1.0" decel="5.0" sigma="0.0" length="4.5" maxSpeed="2.04338877359972" />
	<vType id="vType_car_3.505509639521831" accel="1.0" decel="5.0" sigma="0.0" length="4.5" maxSpeed="0.973752677644953" />
	<vType id="vType_car_5.505145561288373" accel="1.0" decel="5.0" sigma="0.0" length="4.5" maxSpeed="1.5292071003578813" />
	<vType id="vType_car_38.016083316344485" accel="1.0" decel="5.0" sigma="0.0" length="4.5" maxSpeed="10.560023143429023" />
	<route id="route_north_to_east" edges="north_to_center center_to_east" />
	<route id="route_north_to_south" edges="north_to_center center_to_south" />
	<route id="route_north_to_west" edges="north_to_center center_to_west" />
	<route id="route_east_to_west" edges="east_to_center center_to_west" />
	<route id="route_east_to_south" edges="east_to_center center_to_south" />
	<route id="route_east_to_north" edges="east_to_center center_to_north" />
	<route id="route_south_to_west" edges="south_to_center center_to_west" />
	<route id="route_south_to_north" edges="south_to_center center_to_north" />
	<route id="route_south_to_east" edges="south_to_center center_to_east" />
	<route id="route_west_to_south" edges="west_to_center center_to_south" />
	<route id="route_west_to_north" edges="west_to_center center_to_north" />
	<route id="route_west_to_east" edges="west_to_center center_to_east" />
	<vehicle id="veh700" type="vType_car_28.26594284222926" route="route_east_to_west" depart="0.04" />
	<vehicle id="veh757" type="vType_car_9.484856468490955" route="route_east_to_north" depart="0.04" />
	<vehicle id="veh766" type="vType_car_13.53990569859582" route="route_south_to_west" depart="0.04" />
	<vehicle id="veh782" type="vType_car_24.828935072970364" route="route_east_to_west" depart="0.04" />
	<vehicle id="veh773" type="vType_car_9.675349372201797" route="route_east_to_south" depart="0.04" />
	<vehicle id="veh783" type="vType_car_8.986323173319967" route="route_east_to_north" depart="0.04" />
	<vehicle id="veh785" type="vType_car_10.071848610730562" route="route_north_to_south" depart="0.04" />
	<vehicle id="veh788" type="vType_car_46.69946035236279" route="route_west_to_south" depart="0.04" />
	<vehicle id="veh793" type="vType_car_38.19790260333015" route="route_west_to_east" depart="0.04" />
	<vehicle id="veh795" type="vType_car_43.48547774470627" route="route_west_to_east" depart="0.04" />
	<vehicle id="veh797" type="vType_car_49.000279462486255" route="route_west_to_east" depart="1.68" />
	<vehicle id="veh798" type="vType_car_28.57453452095041" route="route_east_to_west" depart="1.90" />
	<vehicle id="veh799" type="vType_car_14.423976485795725" route="route_south_to_north" depart="2.65" />
	<vehicle id="veh800" type="vType_car_41.540625146401595" route="route_west_to_east" depart="2.79" />
	<vehicle id="veh802" type="vType_car_44.23549767314329" route="route_west_to_east" depart="3.15" />
	<vehicle id="veh804" type="vType_car_39.38256405208129" route="route_west_to_east" depart="5.36" />
	<vehicle id="veh806" type="vType_car_60.559820078635845" route="route_west_to_east" depart="9.44" />
	<vehicle id="veh807" type="vType_car_29.62462002883228" route="route_east_to_west" depart="9.44" />
	<vehicle id="veh809" type="vType_car_37.746896618150885" route="route_east_to_west" depart="10.05" />
	<vehicle id="veh812" type="vType_car_38.54676947698155" route="route_east_to_west" depart="11.59" />
	<vehicle id="veh819" type="vType_truck_83.37725524419832" route="route_west_to_east" depart="14.16" />
	<vehicle id="veh826" type="vType_car_12.042563701098361" route="route_south_to_north" depart="17.91" />
	<vehicle id="veh835" type="vType_car_47.744426053278936" route="route_east_to_west" depart="18.59" />
	<vehicle id="veh838" type="vType_car_15.916665195527095" route="route_east_to_north" depart="18.81" />
	<vehicle id="veh841" type="vType_car_74.62434738162078" route="route_west_to_east" depart="19.34" />
	<vehicle id="veh845" type="vType_car_57.45943219635725" route="route_east_to_west" depart="19.34" />
	<vehicle id="veh850" type="vType_car_40.96928938310897" route="route_east_to_west" depart="21.13" />
	<vehicle id="veh857" type="vType_car_39.83796833115553" route="route_east_to_west" depart="22.56" />
	<vehicle id="veh859" type="vType_car_48.94751941318751" route="route_east_to_west" depart="26.00" />
	<vehicle id="veh860" type="vType_car_12.337170878214014" route="route_south_to_east" depart="26.89" />
	<vehicle id="veh861" type="vType_car_49.15819745914355" route="route_east_to_west" depart="30.89" />
	<vehicle id="veh864" type="vType_car_18.90568297517073" route="route_south_to_north" depart="36.83" />
	<vehicle id="veh865" type="vType_car_17.634379210772636" route="route_east_to_south" depart="37.44" />
	<vehicle id="veh866" type="vType_car_43.75881173405247" route="route_east_to_west" depart="38.08" />
	<vehicle id="veh867" type="vType_car_17.71765715875454" route="route_north_to_west" depart="40.26" />
	<vehicle id="veh869" type="vType_car_24.339693043183424" route="route_east_to_south" depart="42.87" />
	<vehicle id="veh876" type="vType_car_17.44670850083968" route="route_north_to_west" depart="52.17" />
	<vehicle id="veh877" type="vType_car_9.206979987405566" route="route_north_to_east" depart="52.85" />
	<vehicle id="veh879" type="vType_car_16.509506124429894" route="route_north_to_south" depart="53.14" />
	<vehicle id="veh880" type="vType_car_13.60819390932077" route="route_north_to_south" depart="54.35" />
	<vehicle id="veh881" type="vType_car_19.23521298273546" route="route_south_to_east" depart="56.60" />
	<vehicle id="veh883" type="vType_car_22.036478461951443" route="route_south_to_east" depart="58.39" />
	<vehicle id="veh888" type="vType_car_30.27863991058251" route="route_south_to_north" depart="59.82" />
	<vehicle id="veh889" type="vType_car_39.005280305491034" route="route_south_to_west" depart="60.47" />
	<vehicle id="veh890" type="vType_car_37.921233342745325" route="route_south_to_west" depart="62.47" />
	<vehicle id="veh891" type="vType_car_35.08495439483902" route="route_south_to_north" depart="63.83" />
	<vehicle id="veh892" type="vType_car_28.43442718446136" route="route_south_to_north" depart="64.18" />
	<vehicle id="veh895" type="vType_car_42.62785749428879" route="route_south_to_west" depart="65.11" />
	<vehicle id="veh896" type="vType_car_14.743972098013774" route="route_east_to_west" depart="65.26" />
	<vehicle id="veh901" type="vType_car_15.302327358019161" route="route_west_to_east" depart="66.80" />
	<vehicle id="veh904" type="vType_car_9.360349402763978" route="route_east_to_west" depart="68.23" />
	<vehicle id="veh909" type="vType_car_19.1305227412724" route="route_north_to_south" depart="71.59" />
	<vehicle id="veh915" type="vType_car_15.336911739714802" route="route_south_to_east" depart="74.05" />
	<vehicle id="veh918" type="vType_car_52.013564019727454" route="route_south_to_north" depart="78.74" />
	<vehicle id="veh920" type="vType_car_24.440625399465908" route="route_north_to_south" depart="80.67" />
	<vehicle id="veh923" type="vType_car_16.297643704488408" route="route_north_to_east" depart="82.60" />
	<vehicle id="veh925" type="vType_car_18.455535516704128" route="route_south_to_east" depart="83.03" />
	<vehicle id="veh926" type="vType_car_24.674213467187265" route="route_north_to_south" depart="84.39" />
	<vehicle id="veh927" type="vType_car_25.395981840067403" route="route_north_to_south" depart="85.25" />
	<vehicle id="veh929" type="vType_car_24.8334459103625" route="route_south_to_east" depart="85.85" />
	<vehicle id="veh932" type="vType_car_31.248871657797572" route="route_north_to_south" depart="89.72" />
	<vehicle id="veh934" type="vType_car_25.826467530449683" route="route_north_to_south" depart="91.00" />
	<vehicle id="veh941" type="vType_car_46.554138162133334" route="route_south_to_north" depart="92.00" />
	<vehicle id="veh944" type="vType_car_33.89458793081225" route="route_north_to_south" depart="93.26" />
	<vehicle id="veh949" type="vType_car_35.60078929996559" route="route_north_to_south" depart="95.83" />
	<vehicle id="veh951" type="vType_car_20.620268932286873" route="route_west_to_east" depart="96.22" />
	<vehicle id="veh952" type="vType_car_28.450345099623327" route="route_north_to_west" depart="96.33" />
	<vehicle id="veh955" type="vType_car_34.909702883994235" route="route_north_to_south" depart="97.08" />
	<vehicle id="veh956" type="vType_car_52.96040544856676" route="route_south_to_north" depart="97.58" />
	<vehicle id="veh960" type="vType_car_35.664670168272984" route="route_north_to_south" depart="100.44" />
	<vehicle id="veh962" type="vType_car_20.252088382916465" route="route_north_to_west" depart="101.80" />
	<vehicle id="veh965" type="vType_car_47.10614365399448" route="route_south_to_north" depart="102.55" />
	<vehicle id="veh966" type="vType_car_18.879883719374362" route="route_south_to_east" depart="102.80" />
	<vehicle id="veh968" type="vType_car_34.640087741397004" route="route_north_to_south" depart="103.45" />
	<vehicle id="veh972" type="vType_car_35.918247652483394" route="route_north_to_south" depart="105.45" />
	<vehicle id="veh975" type="vType_car_50.117192746535906" route="route_north_to_south" depart="106.06" />
	<vehicle id="veh976" type="vType_car_17.981947038216095" route="route_east_to_west" depart="110.42" />
	<vehicle id="veh979" type="vType_car_12.09367641559221" route="route_east_to_north" depart="111.92" />
</routes>
