<?xml version="1.0" encoding="utf-8"?>
<routes>
	<vType id="vType_car_20.13078080817711" accel="1.0" decel="5.0" sigma="0.0" length="4.5" maxSpeed="5.591883557826975" />
	<vType id="vType_car_11.512431742258155" accel="1.0" decel="5.0" sigma="0.0" length="4.5" maxSpeed="3.197897706182821" />
	<vType id="vType_car_4.694864186635391" accel="1.0" decel="5.0" sigma="0.0" length="4.5" maxSpeed="1.3041289407320529" />
	<vType id="vType_car_22.548944966689877" accel="1.0" decel="5.0" sigma="0.0" length="4.5" maxSpeed="6.263595824080522" />
	<vType id="vType_car_10.12480590044403" accel="1.0" decel="5.0" sigma="0.0" length="4.5" maxSpeed="2.8124460834566753" />
	<vType id="vType_car_31.184005543528887" accel="1.0" decel="5.0" sigma="0.0" length="4.5" maxSpeed="8.662223762091358" />
	<vType id="vType_car_26.013836040049096" accel="1.0" decel="5.0" sigma="0.0" length="4.5" maxSpeed="7.226065566680305" />
	<vType id="vType_car_15.34421786655274" accel="1.0" decel="5.0" sigma="0.0" length="4.5" maxSpeed="4.262282740709094" />
	<vType id="vType_car_38.521837007746576" accel="1.0" decel="5.0" sigma="0.0" length="4.5" maxSpeed="10.700510279929604" />
	<vType id="vType_car_14.949714681930788" accel="1.0" decel="5.0" sigma="0.0" length="4.5" maxSpeed="4.152698522758552" />
	<vType id="vType_car_34.84666002937312" accel="1.0" decel="5.0" sigma="0.0" length="4.5" maxSpeed="9.679627785936978" />
	<vType id="vType_car_16.472298009769894" accel="1.0" decel="5.0" sigma="0.0" length="4.5" maxSpeed="4.575638336047192" />
	<vType id="vType_car_37.22213184286486" accel="1.0" decel="5.0" sigma="0.0" length="4.5" maxSpeed="10.339481067462462" />
	<vType id="vType_car_18.42615701928918" accel="1.0" decel="5.0" sigma="0.0" length="4.5" maxSpeed="5.11837694980255" />
	<vType id="vType_car_11.470916469790623" accel="1.0" decel="5.0" sigma="0.0" length="4.5" maxSpeed="3.186365686052951" />
	<vType id="vType_car_19.40744129519909" accel="1.0" decel="5.0" sigma="0.0" length="4.5" maxSpeed="5.39095591533308" />
	<vType id="vType_car_11.436461238648821" accel="1.0" decel="5.0" sigma="0.0" length="4.5" maxSpeed="3.1767947885135612" />
	<vType id="vType_car_5.5997783039313545" accel="1.0" decel="5.0" sigma="0.0" length="4.5" maxSpeed="1.555493973314265" />
	<vType id="vType_car_4.615768706756994" accel="1.0" decel="5.0" sigma="0.0" length="4.5" maxSpeed="1.282157974099165" />
	<vType id="vType_car_7.721183773845994" accel="1.0" decel="5.0" sigma="0.0" length="4.5" maxSpeed="2.144773270512776" />
	<vType id="vType_car_8.143229215676259" accel="1.0" decel="5.0" sigma="0.0" length="4.5" maxSpeed="2.2620081154656275" />
	<vType id="vType_car_3.5379833179932967" accel="1.0" decel="5.0" sigma="0.0" length="4.5" maxSpeed="0.9827731438870269" />
	<vType id="vType_car_16.281263271818133" accel="1.0" decel="5.0" sigma="0.0" length="4.5" maxSpeed="4.522573131060592" />
	<vType id="vType_car_13.19263604013283" accel="1.0" decel="5.0" sigma="0.0" length="4.5" maxSpeed="3.6646211222591196" />
	<vType id="vType_car_23.446067101380464" accel="1.0" decel="5.0" sigma="0.0" length="4.5" maxSpeed="6.5127964170501285" />
	<vType id="vType_car_19.100244997621058" accel="1.0" decel="5.0" sigma="0.0" length="4.5" maxSpeed="5.305623610450294" />
	<vType id="vType_car_13.178555060190831" accel="1.0" decel="5.0" sigma="0.0" length="4.5" maxSpeed="3.6607097389418977" />
	<vType id="vType_car_3.318082825621226" accel="1.0" decel="5.0" sigma="0.0" length="4.5" maxSpeed="0.9216896737836738" />
	<vType id="vType_car_7.055100288113998" accel="1.0" decel="5.0" sigma="0.0" length="4.5" maxSpeed="1.959750080031666" />
	<vType id="vType_car_111.91146933807158" accel="1.0" decel="5.0" sigma="0.0" length="4.5" maxSpeed="31.08651926057544" />
	<vType id="vType_car_18.142243351642787" accel="1.0" decel="5.0" sigma="0.0" length="4.5" maxSpeed="5.039512042122996" />
	<vType id="vType_car_13.80698432960475" accel="1.0" decel="5.0" sigma="0.0" length="4.5" maxSpeed="3.8352734248902083" />
	<vType id="vType_car_7.626173315378843" accel="1.0" decel="5.0" sigma="0.0" length="4.5" maxSpeed="2.118381476494123" />
	<vType id="vType_car_24.743753798482338" accel="1.0" decel="5.0" sigma="0.0" length="4.5" maxSpeed="6.873264944022871" />
	<vType id="vType_car_4.205925166351918" accel="1.0" decel="5.0" sigma="0.0" length="4.5" maxSpeed="1.168312546208866" />
	<vType id="vType_car_26.11198966679567" accel="1.0" decel="5.0" sigma="0.0" length="4.5" maxSpeed="7.253330462998797" />
	<vType id="vType_car_15.845054326995387" accel="1.0" decel="5.0" sigma="0.0" length="4.5" maxSpeed="4.401403979720941" />
	<vType id="vType_car_3.177167959472943" accel="1.0" decel="5.0" sigma="0.0" length="4.5" maxSpeed="0.8825466554091509" />
	<vType id="vType_car_4.956167709673611" accel="1.0" decel="5.0" sigma="0.0" length="4.5" maxSpeed="1.3767132526871142" />
	<vType id="vType_car_8.261446369592619" accel="1.0" decel="5.0" sigma="0.0" length="4.5" maxSpeed="2.2948462137757275" />
	<vType id="vType_car_14.665825909026386" accel="1.0" decel="5.0" sigma="0.0" length="4.5" maxSpeed="4.073840530285107" />
	<vType id="vType_car_5.0389304614167685" accel="1.0" decel="5.0" sigma="0.0" length="4.5" maxSpeed="1.3997029059491024" />
	<vType id="vType_car_7.916835991624594" accel="1.0" decel="5.0" sigma="0.0" length="4.5" maxSpeed="2.199121108784609" />
	<vType id="vType_car_20.17325491638154" accel="1.0" decel="5.0" sigma="0.0" length="4.5" maxSpeed="5.6036819212170945" />
	<vType id="vType_car_4.116063326861326" accel="1.0" decel="5.0" sigma="0.0" length="4.5" maxSpeed="1.143350924128146" />
	<vType id="vType_car_13.615021739431535" accel="1.0" decel="5.0" sigma="0.0" length="4.5" maxSpeed="3.7819504831754265" />
	<vType id="vType_car_9.592362428983977" accel="1.0" decel="5.0" sigma="0.0" length="4.5" maxSpeed="2.6645451191622156" />
	<vType id="vType_car_4.56189534742773" accel="1.0" decel="5.0" sigma="0.0" length="4.5" maxSpeed="1.2671931520632582" />
	<vType id="vType_car_4.20546977461968" accel="1.0" decel="5.0" sigma="0.0" length="4.5" maxSpeed="1.1681860485054667" />
	<vType id="vType_car_11.116683225029107" accel="1.0" decel="5.0" sigma="0.0" length="4.5" maxSpeed="3.087967562508085" />
	<vType id="vType_car_23.804821789629575" accel="1.0" decel="5.0" sigma="0.0" length="4.5" maxSpeed="6.612450497119326" />
	<vType id="vType_car_15.115053555933478" accel="1.0" decel="5.0" sigma="0.0" length="4.5" maxSpeed="4.198625987759299" />
	<vType id="vType_car_17.978641823707605" accel="1.0" decel="5.0" sigma="0.0" length="4.5" maxSpeed="4.9940671732521125" />
	<vType id="vType_car_3.5548681876330304" accel="1.0" decel="5.0" sigma="0.0" length="4.5" maxSpeed="0.9874633854536196" />
	<vType id="vType_car_24.65826439192028" accel="1.0" decel="5.0" sigma="0.0" length="4.5" maxSpeed="6.849517886644522" />
	<vType id="vType_car_7.702649720171485" accel="1.0" decel="5.0" sigma="0.0" length="4.5" maxSpeed="2.139624922269857" />
	<vType id="vType_car_29.204800705785747" accel="1.0" decel="5.0" sigma="0.0" length="4.5" maxSpeed="8.11244464049604" />
	<vType id="vType_car_20.185095818203088" accel="1.0" decel="5.0" sigma="0.0" length="4.5" maxSpeed="5.6069710606119685" />
	<vType id="vType_car_17.680496026798508" accel="1.0" decel="5.0" sigma="0.0" length="4.5" maxSpeed="4.911248896332919" />
	<vType id="vType_car_0.629866307677096" accel="1.0" decel="5.0" sigma="0.0" length="4.5" maxSpeed="0.17496286324363777" />
	<vType id="vType_car_23.664011525144364" accel="1.0" decel="5.0" sigma="0.0" length="4.5" maxSpeed="6.573336534762323" />
	<vType id="vType_car_26.921469400413326" accel="1.0" decel="5.0" sigma="0.0" length="4.5" maxSpeed="7.478185944559257" />
	<vType id="vType_car_3.489488171364414" accel="1.0" decel="5.0" sigma="0.0" length="4.5" maxSpeed="0.9693022698234482" />
	<vType id="vType_car_9.049029661219206" accel="1.0" decel="5.0" sigma="0.0" length="4.5" maxSpeed="2.5136193503386686" />
	<vType id="vType_car_3.8810853085212815" accel="1.0" decel="5.0" sigma="0.0" length="4.5" maxSpeed="1.0780792523670226" />
	<vType id="vType_car_7.105091049311924" accel="1.0" decel="5.0" sigma="0.0" length="4.5" maxSpeed="1.9736364025866455" />
	<vType id="vType_car_12.720123983247865" accel="1.0" decel="5.0" sigma="0.0" length="4.5" maxSpeed="3.533367773124407" />
	<vType id="vType_car_4.057080040625998" accel="1.0" decel="5.0" sigma="0.0" length="4.5" maxSpeed="1.126966677951666" />
	<vType id="vType_car_15.65620753900765" accel="1.0" decel="5.0" sigma="0.0" length="4.5" maxSpeed="4.3489465386132355" />
	<vType id="vType_car_3.8719517014765255" accel="1.0" decel="5.0" sigma="0.0" length="4.5" maxSpeed="1.0755421392990347" />
	<vType id="vType_car_33.02980486121007" accel="1.0" decel="5.0" sigma="0.0" length="4.5" maxSpeed="9.174945794780575" />
	<vType id="vType_car_6.095284758620723" accel="1.0" decel="5.0" sigma="0.0" length="4.5" maxSpeed="1.6931346551724231" />
	<vType id="vType_car_16.414342621667927" accel="1.0" decel="5.0" sigma="0.0" length="4.5" maxSpeed="4.55953961712998" />
    <vType id="vType_car_17.28149838182353" accel="1.0" decel="5.0" sigma="0.0" length="4.5" maxSpeed="4.800416217173202" />
	<vType id="vType_car_28.912523490231308" accel="1.0" decel="5.0" sigma="0.0" length="4.5" maxSpeed="8.031256525064252" />
	<vType id="vType_car_18.89124152817873" accel="1.0" decel="5.0" sigma="0.0" length="4.5" maxSpeed="5.247567091160758" />
	<vType id="vType_car_4.460194299741755" accel="1.0" decel="5.0" sigma="0.0" length="4.5" maxSpeed="1.2389428610393765" />
	<vType id="vType_car_20.41298998140609" accel="1.0" decel="5.0" sigma="0.0" length="4.5" maxSpeed="5.670274994835024" />
	<vType id="vType_car_3.602174812493953" accel="1.0" decel="5.0" sigma="0.0" length="4.5" maxSpeed="1.0006041145816535" />
	<vType id="vType_car_28.104980295557247" accel="1.0" decel="5.0" sigma="0.0" length="4.5" maxSpeed="7.806938970988124" />
	<vType id="vType_car_1.867323894056272" accel="1.0" decel="5.0" sigma="0.0" length="4.5" maxSpeed="0.5187010816822978" />
	<vType id="vType_car_14.677553095294726" accel="1.0" decel="5.0" sigma="0.0" length="4.5" maxSpeed="4.077098082026313" />
	<vType id="vType_car_4.196268860670798" accel="1.0" decel="5.0" sigma="0.0" length="4.5" maxSpeed="1.1656302390752216" />
	<vType id="vType_car_30.720618290358168" accel="1.0" decel="5.0" sigma="0.0" length="4.5" maxSpeed="8.533505080655047" />
	<vType id="vType_car_11.496399062156929" accel="1.0" decel="5.0" sigma="0.0" length="4.5" maxSpeed="3.1934441839324803" />
	<vType id="vType_car_26.790051825114507" accel="1.0" decel="5.0" sigma="0.0" length="4.5" maxSpeed="7.441681062531807" />
	<vType id="vType_car_4.56189534742773" accel="1.0" decel="5.0" sigma="0.0" length="4.5" maxSpeed="1.2671931520632582" />
	<vType id="vType_car_17.243376795727805" accel="1.0" decel="5.0" sigma="0.0" length="4.5" maxSpeed="4.789826887702168" />
	<vType id="vType_car_39.16073767430462" accel="1.0" decel="5.0" sigma="0.0" length="4.5" maxSpeed="10.877982687306838" />
	<vType id="vType_car_13.903081465351915" accel="1.0" decel="5.0" sigma="0.0" length="4.5" maxSpeed="3.861967073708865" />
	<vType id="vType_car_20.66568770669587" accel="1.0" decel="5.0" sigma="0.0" length="4.5" maxSpeed="5.740468807415519" />
	<vType id="vType_car_26.318007085252322" accel="1.0" decel="5.0" sigma="0.0" length="4.5" maxSpeed="7.310557523681201" />
	<vType id="vType_car_26.416616773092937" accel="1.0" decel="5.0" sigma="0.0" length="4.5" maxSpeed="7.337949103636927" />
	<vType id="vType_car_24.439797841378773" accel="1.0" decel="5.0" sigma="0.0" length="4.5" maxSpeed="6.788832733716326" />
	<vType id="vType_car_22.686764215282043" accel="1.0" decel="5.0" sigma="0.0" length="4.5" maxSpeed="6.301878948689456" />
	<vType id="vType_car_4.844442409049991" accel="1.0" decel="5.0" sigma="0.0" length="4.5" maxSpeed="1.345678446958331" />
	<vType id="vType_car_3.8098594551415212" accel="1.0" decel="5.0" sigma="0.0" length="4.5" maxSpeed="1.058294293094867" />
	<vType id="vType_car_25.1981698880233" accel="1.0" decel="5.0" sigma="0.0" length="4.5" maxSpeed="6.999491635562028" />
	<vType id="vType_car_19.096154458635873" accel="1.0" decel="5.0" sigma="0.0" length="4.5" maxSpeed="5.304487349621076" />
	<vType id="vType_car_27.58467952186655" accel="1.0" decel="5.0" sigma="0.0" length="4.5" maxSpeed="7.662410978296264" />
	<vType id="vType_car_19.395582932644476" accel="1.0" decel="5.0" sigma="0.0" length="4.5" maxSpeed="5.387661925734577" />
	<vType id="vType_car_29.9846630204902" accel="1.0" decel="5.0" sigma="0.0" length="4.5" maxSpeed="8.329073061247277" />
	<vType id="vType_car_17.048765382160198" accel="1.0" decel="5.0" sigma="0.0" length="4.5" maxSpeed="4.735768161711166" />
	<vType id="vType_car_22.321754684570237" accel="1.0" decel="5.0" sigma="0.0" length="4.5" maxSpeed="6.200487412380621" />
	<vType id="vType_car_14.64818251728922" accel="1.0" decel="5.0" sigma="0.0" length="4.5" maxSpeed="4.068939588135894" />
	<vType id="vType_car_23.880084554325993" accel="1.0" decel="5.0" sigma="0.0" length="4.5" maxSpeed="6.633356820646109" />
	<vType id="vType_car_3.4553655169304087" accel="1.0" decel="5.0" sigma="0.0" length="4.5" maxSpeed="0.9598237547028913" />
	<vType id="vType_car_27.29196289433676" accel="1.0" decel="5.0" sigma="0.0" length="4.5" maxSpeed="7.581100803982433" />
	<vType id="vType_car_40.385066249959834" accel="1.0" decel="5.0" sigma="0.0" length="4.5" maxSpeed="11.218073958322176" />
	<vType id="vType_car_26.848095499082874" accel="1.0" decel="5.0" sigma="0.0" length="4.5" maxSpeed="7.457804305300798" />
	<vType id="vType_car_16.333033060281803" accel="1.0" decel="5.0" sigma="0.0" length="4.5" maxSpeed="4.5369536278560565" />
	<vType id="vType_car_5.204971363924822" accel="1.0" decel="5.0" sigma="0.0" length="4.5" maxSpeed="1.4458253788680062" />
	<vType id="vType_car_25.44536174452423" accel="1.0" decel="5.0" sigma="0.0" length="4.5" maxSpeed="7.068156040145619" />
	<vType id="vType_car_3.787825767867538" accel="1.0" decel="5.0" sigma="0.0" length="4.5" maxSpeed="1.0521738244076495" />
	<vType id="vType_car_18.67884499737089" accel="1.0" decel="5.0" sigma="0.0" length="4.5" maxSpeed="5.1885680548252475" />
	<vType id="vType_car_7.046549740429511" accel="1.0" decel="5.0" sigma="0.0" length="4.5" maxSpeed="1.9573749278970864" />
	<vType id="vType_car_3.7791978460625764" accel="1.0" decel="5.0" sigma="0.0" length="4.5" maxSpeed="1.0497771794618267" />
	<vType id="vType_car_32.77909211459981" accel="1.0" decel="5.0" sigma="0.0" length="4.5" maxSpeed="9.105303365166614" />
	<vType id="vType_car_14.871585393645136" accel="1.0" decel="5.0" sigma="0.0" length="4.5" maxSpeed="4.1309959426792044" />
	<vType id="vType_car_31.48740443312538" accel="1.0" decel="5.0" sigma="0.0" length="4.5" maxSpeed="8.746501231423716" />
	<vType id="vType_car_17.484923582651504" accel="1.0" decel="5.0" sigma="0.0" length="4.5" maxSpeed="4.856923217403195" />
	<vType id="vType_car_3.6926996850556315" accel="1.0" decel="5.0" sigma="0.0" length="4.5" maxSpeed="1.0257499125154532" />
	<vType id="vType_car_16.863598346921087" accel="1.0" decel="5.0" sigma="0.0" length="4.5" maxSpeed="4.684332874144746" />
	<vType id="vType_car_22.89554811393793" accel="1.0" decel="5.0" sigma="0.0" length="4.5" maxSpeed="6.35987447609387" />
	<vType id="vType_car_19.99843604948402" accel="1.0" decel="5.0" sigma="0.0" length="4.5" maxSpeed="5.555121124856672" />
	<vType id="vType_car_13.497163778802832" accel="1.0" decel="5.0" sigma="0.0" length="4.5" maxSpeed="3.7492121607785647" />
	<vType id="vType_car_28.715179667214606" accel="1.0" decel="5.0" sigma="0.0" length="4.5" maxSpeed="7.976438796448502" />
	<vType id="vType_car_26.979713627865593" accel="1.0" decel="5.0" sigma="0.0" length="4.5" maxSpeed="7.494364896629331" />
	<vType id="vType_car_1.8895989230312882" accel="1.0" decel="5.0" sigma="0.0" length="4.5" maxSpeed="0.5248885897309133" />
	<vType id="vType_car_37.1114773876276" accel="1.0" decel="5.0" sigma="0.0" length="4.5" maxSpeed="10.308743718785445" />
	<vType id="vType_car_16.667181074313167" accel="1.0" decel="5.0" sigma="0.0" length="4.5" maxSpeed="4.629772520642546" />
	<vType id="vType_car_3.4192742416756645" accel="1.0" decel="5.0" sigma="0.0" length="4.5" maxSpeed="0.9497984004654624" />
	<vType id="vType_car_28.590813028998276" accel="1.0" decel="5.0" sigma="0.0" length="4.5" maxSpeed="7.941892508055076" />
	<vType id="vType_car_29.176409760080787" accel="1.0" decel="5.0" sigma="0.0" length="4.5" maxSpeed="8.104558266689107" />
	<vType id="vType_car_28.559221462595662" accel="1.0" decel="5.0" sigma="0.0" length="4.5" maxSpeed="7.933117072943239" />
    <vType id="vType_car_17.726616445330432" accel="1.0" decel="5.0" sigma="0.0" length="4.5" maxSpeed="4.924060123702898" />
	<vType id="vType_car_28.07847520518135" accel="1.0" decel="5.0" sigma="0.0" length="4.5" maxSpeed="7.799576445883708" />
	<vType id="vType_car_9.177806426332635" accel="1.0" decel="5.0" sigma="0.0" length="4.5" maxSpeed="2.5493906739812875" />
	<vType id="vType_car_14.569744630502441" accel="1.0" decel="5.0" sigma="0.0" length="4.5" maxSpeed="4.047151286250678" />
	<vType id="vType_car_15.183163511892996" accel="1.0" decel="5.0" sigma="0.0" length="4.5" maxSpeed="4.217545419970277" />
	<vType id="vType_car_18.567142461844554" accel="1.0" decel="5.0" sigma="0.0" length="4.5" maxSpeed="5.157539572734598" />
	<vType id="vType_car_17.54564247774846" accel="1.0" decel="5.0" sigma="0.0" length="4.5" maxSpeed="4.873789577152349" />
	<vType id="vType_car_24.073869530322465" accel="1.0" decel="5.0" sigma="0.0" length="4.5" maxSpeed="6.687185980645129" />
	<vType id="vType_car_4.104616840441475" accel="1.0" decel="5.0" sigma="0.0" length="4.5" maxSpeed="1.1401713445670763" />
	<vType id="vType_car_9.959199437930014" accel="1.0" decel="5.0" sigma="0.0" length="4.5" maxSpeed="2.7664442883138927" />
	<vType id="vType_car_10.587415911377292" accel="1.0" decel="5.0" sigma="0.0" length="4.5" maxSpeed="2.94094886427147" />
	<vType id="vType_car_7.268589462485754" accel="1.0" decel="5.0" sigma="0.0" length="4.5" maxSpeed="2.019052628468265" />
	<vType id="vType_car_27.858896849477865" accel="1.0" decel="5.0" sigma="0.0" length="4.5" maxSpeed="7.738582458188295" />
	<vType id="vType_car_14.201024782375557" accel="1.0" decel="5.0" sigma="0.0" length="4.5" maxSpeed="3.944729106215432" />
	<vType id="vType_car_4.557755419088265" accel="1.0" decel="5.0" sigma="0.0" length="4.5" maxSpeed="1.2660431719689624" />
	<vType id="vType_car_9.952288931884244" accel="1.0" decel="5.0" sigma="0.0" length="4.5" maxSpeed="2.764524703301179" />
	<vType id="vType_car_36.70315990237012" accel="1.0" decel="5.0" sigma="0.0" length="4.5" maxSpeed="10.19532219510281" />
	<vType id="vType_car_3.7791978460625764" accel="1.0" decel="5.0" sigma="0.0" length="4.5" maxSpeed="1.0497771794618267" />
	<vType id="vType_car_4.300996180306012" accel="1.0" decel="5.0" sigma="0.0" length="4.5" maxSpeed="1.1947211611961146" />
	<vType id="vType_car_9.590877685280994" accel="1.0" decel="5.0" sigma="0.0" length="4.5" maxSpeed="2.6641326903558316" />
	<vType id="vType_car_35.77696656349829" accel="1.0" decel="5.0" sigma="0.0" length="4.5" maxSpeed="9.938046267638414" />
	<vType id="vType_car_5.657025299351064" accel="1.0" decel="5.0" sigma="0.0" length="4.5" maxSpeed="1.5713959164864066" />
	<vType id="vType_car_19.859352147350197" accel="1.0" decel="5.0" sigma="0.0" length="4.5" maxSpeed="5.516486707597277" />
	<vType id="vType_car_20.108914084377087" accel="1.0" decel="5.0" sigma="0.0" length="4.5" maxSpeed="5.585809467882524" />
	<vType id="vType_car_17.785445475122554" accel="1.0" decel="5.0" sigma="0.0" length="4.5" maxSpeed="4.940401520867376" />
	<vType id="vType_car_23.791609138780835" accel="1.0" decel="5.0" sigma="0.0" length="4.5" maxSpeed="6.608780316328009" />
	<vType id="vType_car_19.930245971040186" accel="1.0" decel="5.0" sigma="0.0" length="4.5" maxSpeed="5.536179436400052" />
	<vType id="vType_car_24.63381403051759" accel="1.0" decel="5.0" sigma="0.0" length="4.5" maxSpeed="6.842726119588219" />
	<vType id="vType_car_24.837417599566322" accel="1.0" decel="5.0" sigma="0.0" length="4.5" maxSpeed="6.899282666546201" />
	<vType id="vType_car_3.520886936266088" accel="1.0" decel="5.0" sigma="0.0" length="4.5" maxSpeed="0.9780241489628022" />
	<vType id="vType_car_18.435853230128522" accel="1.0" decel="5.0" sigma="0.0" length="4.5" maxSpeed="5.121070341702367" />
	<vType id="vType_car_24.88187826607055" accel="1.0" decel="5.0" sigma="0.0" length="4.5" maxSpeed="6.911632851686264" />
	<vType id="vType_car_19.50448528948374" accel="1.0" decel="5.0" sigma="0.0" length="4.5" maxSpeed="5.41791258041215" />
	<vType id="vType_car_16.085605824615126" accel="1.0" decel="5.0" sigma="0.0" length="4.5" maxSpeed="4.468223840170868" />
	<vType id="vType_car_22.572904134258366" accel="1.0" decel="5.0" sigma="0.0" length="4.5" maxSpeed="6.270251148405102" />
	<vType id="vType_car_18.49718460721826" accel="1.0" decel="5.0" sigma="0.0" length="4.5" maxSpeed="5.138106835338405" />
	<vType id="vType_car_31.379307133152132" accel="1.0" decel="5.0" sigma="0.0" length="4.5" maxSpeed="8.71647420365337" />
	<vType id="vType_car_29.548203718255706" accel="1.0" decel="5.0" sigma="0.0" length="4.5" maxSpeed="8.20783436618214" />
	<vType id="vType_car_31.070325692282527" accel="1.0" decel="5.0" sigma="0.0" length="4.5" maxSpeed="8.630646025634036" />
	<vType id="vType_car_22.95614840177921" accel="1.0" decel="5.0" sigma="0.0" length="4.5" maxSpeed="6.3767078893831135" />
	<vType id="vType_car_22.10439332405689" accel="1.0" decel="5.0" sigma="0.0" length="4.5" maxSpeed="6.140109256682469" />
	<vType id="vType_car_20.98966536579568" accel="1.0" decel="5.0" sigma="0.0" length="4.5" maxSpeed="5.830462601609911" />
	<vType id="vType_car_32.53851296968719" accel="1.0" decel="5.0" sigma="0.0" length="4.5" maxSpeed="9.038475824913109" />
	<vType id="vType_car_33.86726734915779" accel="1.0" decel="5.0" sigma="0.0" length="4.5" maxSpeed="9.407574263654942" />
	<vType id="vType_car_18.124529204612735" accel="1.0" decel="5.0" sigma="0.0" length="4.5" maxSpeed="5.034591445725759" />
	<vType id="vType_car_28.86210429959319" accel="1.0" decel="5.0" sigma="0.0" length="4.5" maxSpeed="8.017251194331442" />
	<vType id="vType_car_9.839977457645984" accel="1.0" decel="5.0" sigma="0.0" length="4.5" maxSpeed="2.733327071568329" />
	<route id="route_north_to_east" edges="north_to_center center_to_east" />
	<route id="route_north_to_south" edges="north_to_center center_to_south" />
	<route id="route_north_to_west" edges="north_to_center center_to_west" />
	<route id="route_east_to_west" edges="east_to_center center_to_west" />
	<route id="route_east_to_south" edges="east_to_center center_to_south" />
	<route id="route_east_to_north" edges="east_to_center center_to_north" />
	<route id="route_south_to_west" edges="south_to_center center_to_west" />
	<route id="route_south_to_north" edges="south_to_center center_to_north" />
	<route id="route_south_to_east" edges="south_to_center center_to_east" />
	<route id="route_west_to_south" edges="west_to_center center_to_south" />
	<route id="route_west_to_north" edges="west_to_center center_to_north" />
	<route id="route_west_to_east" edges="west_to_center center_to_east" />
	<vehicle id="veh261" type="vType_car_20.13078080817711" route="route_west_to_north" depart="0.03" />
	<vehicle id="veh280" type="vType_car_11.512431742258155" route="route_north_to_east" depart="0.03" />
	<vehicle id="veh281" type="vType_car_22.548944966689877" route="route_west_to_north" depart="0.03" />
	<vehicle id="veh286" type="vType_car_10.12480590044403" route="route_south_to_north" depart="0.93" />
	<vehicle id="veh289" type="vType_car_31.184005543528887" route="route_east_to_west" depart="8.30" />
	<vehicle id="veh291" type="vType_car_26.013836040049096" route="route_east_to_south" depart="8.40" />
	<vehicle id="veh293" type="vType_car_15.34421786655274" route="route_north_to_east" depart="27.17" />
	<vehicle id="veh298" type="vType_car_38.521837007746576" route="route_south_to_west" depart="28.91" />
	<vehicle id="veh299" type="vType_car_14.949714681930788" route="route_west_to_east" depart="29.01" />
	<vehicle id="veh300" type="vType_car_34.84666002937312" route="route_north_to_south" depart="30.21" />
	<vehicle id="veh301" type="vType_car_16.472298009769894" route="route_north_to_east" depart="31.17" />
	<vehicle id="veh302" type="vType_car_37.22213184286486" route="route_north_to_south" depart="32.11" />
	<vehicle id="veh304" type="vType_car_18.42615701928918" route="route_north_to_east" depart="33.04" />
	<vehicle id="veh305" type="vType_car_11.470916469790623" route="route_north_to_east" depart="34.41" />
	<vehicle id="veh306" type="vType_car_19.40744129519909" route="route_north_to_west" depart="35.51" />
	<vehicle id="veh307" type="vType_car_11.436461238648821" route="route_north_to_east" depart="38.21" />
	<vehicle id="veh312" type="vType_car_7.721183773845994" route="route_east_to_north" depart="41.58" />
	<vehicle id="veh313" type="vType_car_8.143229215676259" route="route_east_to_north" depart="41.91" />
	<vehicle id="veh316" type="vType_car_16.281263271818133" route="route_south_to_north" depart="45.78" />
	<vehicle id="veh319" type="vType_car_23.446067101380464" route="route_north_to_west" depart="47.04" />
	<vehicle id="veh321" type="vType_car_13.178555060190831" route="route_north_to_east" depart="51.98" />
	<vehicle id="veh325" type="vType_car_7.055100288113998" route="route_east_to_north" depart="57.05" />
	<vehicle id="veh328" type="vType_car_18.142243351642787" route="route_south_to_north" depart="58.38" />
	<vehicle id="veh329" type="vType_car_13.80698432960475" route="route_north_to_east" depart="59.85" />
	<vehicle id="veh330" type="vType_car_7.626173315378843" route="route_east_to_north" depart="62.38" />
	<vehicle id="veh332" type="vType_car_24.743753798482338" route="route_east_to_west" depart="66.58" />
	<vehicle id="veh334" type="vType_car_26.11198966679567" route="route_west_to_south" depart="75.25" />
	<vehicle id="veh336" type="vType_car_15.845054326995387" route="route_north_to_south" depart="76.28" />
	<vehicle id="veh339" type="vType_car_8.261446369592619" route="route_east_to_north" depart="81.98" />
	<vehicle id="veh340" type="vType_car_14.665825909026386" route="route_north_to_east" depart="82.82" />
	<vehicle id="veh342" type="vType_car_7.916835991624594" route="route_east_to_north" depart="85.22" />
	<vehicle id="veh346" type="vType_car_20.17325491638154" route="route_north_to_south" depart="85.72" />
	<vehicle id="veh349" type="vType_car_13.615021739431535" route="route_west_to_south" depart="88.02" />
	<vehicle id="veh350" type="vType_car_9.592362428983977" route="route_east_to_north" depart="88.29" />
	<vehicle id="veh356" type="vType_car_23.804821789629575" route="route_north_to_west" depart="91.69" />
	<vehicle id="veh357" type="vType_car_15.115053555933478" route="route_north_to_east" depart="92.15" />
	<vehicle id="veh358" type="vType_car_17.978641823707605" route="route_north_to_east" depart="94.49" />
	<vehicle id="veh360" type="vType_car_24.65826439192028" route="route_north_to_south" depart="95.39" />
	<vehicle id="veh364" type="vType_car_29.204800705785747" route="route_south_to_west" depart="97.35" />
	<vehicle id="veh365" type="vType_car_20.185095818203088" route="route_north_to_west" depart="98.69" />
	<vehicle id="veh367" type="vType_car_17.680496026798508" route="route_south_to_east" depart="98.89" />
	<vehicle id="veh369" type="vType_car_23.664011525144364" route="route_north_to_south" depart="102.19" />
	<vehicle id="veh370" type="vType_car_26.921469400413326" route="route_north_to_south" depart="102.19" />
	<vehicle id="veh372" type="vType_car_9.049029661219206" route="route_east_to_north" depart="104.79" />
	<vehicle id="veh374" type="vType_car_7.105091049311924" route="route_east_to_north" depart="107.76" />
	<vehicle id="veh375" type="vType_car_12.720123983247865" route="route_west_to_south" depart="109.46" />
	<vehicle id="veh378" type="vType_car_15.65620753900765" route="route_south_to_north" depart="111.42" />
	<vehicle id="veh382" type="vType_car_33.02980486121007" route="route_south_to_north" depart="113.12" />
    <vehicle id="veh361" type="vType_car_17.28149838182353" route="route_west_to_north" depart="120.03" />
	<vehicle id="veh376" type="vType_car_28.912523490231308" route="route_east_to_west" depart="120.03" />
	<vehicle id="veh383" type="vType_car_18.89124152817873" route="route_west_to_north" depart="120.03" />
	<vehicle id="veh386" type="vType_car_20.41298998140609" route="route_west_to_south" depart="120.03" />
	<vehicle id="veh390" type="vType_car_28.104980295557247" route="route_south_to_north" depart="123.70" />
	<vehicle id="veh392" type="vType_car_14.677553095294726" route="route_north_to_south" depart="129.50" />
	<vehicle id="veh395" type="vType_car_30.720618290358168" route="route_east_to_west" depart="143.67" />
	<vehicle id="veh396" type="vType_car_11.496399062156929" route="route_north_to_east" depart="143.97" />
	<vehicle id="veh397" type="vType_car_26.790051825114507" route="route_east_to_south" depart="146.01" />
	<vehicle id="veh400" type="vType_car_17.243376795727805" route="route_west_to_north" depart="147.27" />
	<vehicle id="veh402" type="vType_car_39.16073767430462" route="route_east_to_west" depart="153.74" />
	<vehicle id="veh403" type="vType_car_13.903081465351915" route="route_south_to_north" depart="162.58" />
	<vehicle id="veh404" type="vType_car_20.66568770669587" route="route_north_to_east" depart="164.01" />
	<vehicle id="veh405" type="vType_car_26.318007085252322" route="route_north_to_south" depart="165.54" />
	<vehicle id="veh411" type="vType_car_26.416616773092937" route="route_north_to_south" depart="168.01" />
	<vehicle id="veh413" type="vType_car_24.439797841378773" route="route_north_to_south" depart="168.14" />