<?xml version='1.0' encoding='utf-8'?>
<routes><vType id="vType_car_21.009788447321444" accel="1.0" decel="5.0" sigma="0.0" length="4.5" maxSpeed="5.836052346478179" /><vType id="vType_car_81.02170316522148" accel="1.0" decel="5.0" sigma="0.0" length="4.5" maxSpeed="22.506028657005967" /><vType id="vType_car_5.803221929295075" accel="1.0" decel="5.0" sigma="0.0" length="4.5" maxSpeed="1.6120060914708543" /><vType id="vType_car_25.99302247786521" accel="1.0" decel="5.0" sigma="0.0" length="4.5" maxSpeed="7.220284021629225" /><vType id="vType_car_33.42385576102876" accel="1.0" decel="5.0" sigma="0.0" length="4.5" maxSpeed="9.284404378063545" /><vType id="vType_car_71.06230105511588" accel="1.0" decel="5.0" sigma="0.0" length="4.5" maxSpeed="19.73952807086552" /><route id="route_north_to_east" edges="north_to_center center_to_east" /><route id="route_north_to_south" edges="north_to_center center_to_south" /><route id="route_north_to_west" edges="north_to_center center_to_west" /><route id="route_east_to_west" edges="east_to_center center_to_west" /><route id="route_east_to_south" edges="east_to_center center_to_south" /><route id="route_east_to_north" edges="east_to_center center_to_north" /><route id="route_south_to_west" edges="south_to_center center_to_west" /><route id="route_south_to_north" edges="south_to_center center_to_north" /><route id="route_south_to_east" edges="south_to_center center_to_east" /><route id="route_west_to_south" edges="west_to_center center_to_south" /><route id="route_west_to_north" edges="west_to_center center_to_north" /><route id="route_west_to_east" edges="west_to_center center_to_east" /><vehicle id="veh80" type="vType_car_21.009788447321444" route="route_north_to_south" depart="0.04" /><vehicle id="veh89" type="vType_car_25.99302247786521" route="route_west_to_east" depart="49.54" /><vehicle id="veh91" type="vType_car_33.42385576102876" route="route_west_to_east" depart="53.44" /></routes>