<?xml version='1.0' encoding='utf-8'?>
<routes><vType id="vType_car_4.375634907464362" accel="1.0" decel="5.0" sigma="0.0" length="4.5" maxSpeed="1.2154541409623227" /><vType id="vType_car_7.719552868820701" accel="1.0" decel="5.0" sigma="0.0" length="4.5" maxSpeed="2.1443202413390834" /><vType id="vType_car_105.43499974140661" accel="1.0" decel="5.0" sigma="0.0" length="4.5" maxSpeed="29.287499928168504" /><vType id="vType_car_33.27369938245597" accel="1.0" decel="5.0" sigma="0.0" length="4.5" maxSpeed="9.242694272904437" /><vType id="vType_car_28.742917656527975" accel="1.0" decel="5.0" sigma="0.0" length="4.5" maxSpeed="7.984143793479993" /><vType id="vType_car_11.073067625384708" accel="1.0" decel="5.0" sigma="0.0" length="4.5" maxSpeed="3.0758521181624188" /><vType id="vType_car_17.62959999549936" accel="1.0" decel="5.0" sigma="0.0" length="4.5" maxSpeed="4.897111109860933" /><vType id="vType_car_24.758284832899186" accel="1.0" decel="5.0" sigma="0.0" length="4.5" maxSpeed="6.877301342471996" /><vType id="vType_car_3.299062255194293" accel="1.0" decel="5.0" sigma="0.0" length="4.5" maxSpeed="0.9164061819984147" /><vType id="vType_car_16.06045898008392" accel="1.0" decel="5.0" sigma="0.0" length="4.5" maxSpeed="4.461238605578866" /><vType id="vType_car_18.704540575252675" accel="1.0" decel="5.0" sigma="0.0" length="4.5" maxSpeed="5.195705715347965" /><vType id="vType_car_16.025852758781205" accel="1.0" decel="5.0" sigma="0.0" length="4.5" maxSpeed="4.451625766328113" /><vType id="vType_car_27.91602955206286" accel="1.0" decel="5.0" sigma="0.0" length="4.5" maxSpeed="7.7544526533507945" /><vType id="vType_car_3.838223022941628" accel="1.0" decel="5.0" sigma="0.0" length="4.5" maxSpeed="1.06617306192823" /><vType id="vType_car_7.061258961191467" accel="1.0" decel="5.0" sigma="0.0" length="4.5" maxSpeed="1.9614608225531853" /><vType id="vType_car_24.244356744167057" accel="1.0" decel="5.0" sigma="0.0" length="4.5" maxSpeed="6.734543540046404" /><vType id="vType_car_3.630592311081558" accel="1.0" decel="5.0" sigma="0.0" length="4.5" maxSpeed="1.0084978641893216" /><vType id="vType_car_4.620286949923352" accel="1.0" decel="5.0" sigma="0.0" length="4.5" maxSpeed="1.2834130416453755" /><vType id="vType_car_33.60311094825056" accel="1.0" decel="5.0" sigma="0.0" length="4.5" maxSpeed="9.334197485625156" /><vType id="vType_car_25.846226807904326" accel="1.0" decel="5.0" sigma="0.0" length="4.5" maxSpeed="7.17950744664009" /><vType id="vType_car_12.364959982937993" accel="1.0" decel="5.0" sigma="0.0" length="4.5" maxSpeed="3.4347111063716644" /><vType id="vType_car_27.41634266027693" accel="1.0" decel="5.0" sigma="0.0" length="4.5" maxSpeed="7.6156507389658135" /><vType id="vType_car_3.6043678813820836" accel="1.0" decel="5.0" sigma="0.0" length="4.5" maxSpeed="1.001213300383912" /><vType id="vType_car_29.919076414837587" accel="1.0" decel="5.0" sigma="0.0" length="4.5" maxSpeed="8.310854559677107" /><vType id="vType_car_13.334520447068137" accel="1.0" decel="5.0" sigma="0.0" length="4.5" maxSpeed="3.7040334575189267" /><vType id="vType_car_23.63191321485532" accel="1.0" decel="5.0" sigma="0.0" length="4.5" maxSpeed="6.564420337459811" /><vType id="vType_car_9.362539341397017" accel="1.0" decel="5.0" sigma="0.0" length="4.5" maxSpeed="2.6007053726102827" /><vType id="vType_car_27.189259743051373" accel="1.0" decel="5.0" sigma="0.0" length="4.5" maxSpeed="7.552572150847603" /><vType id="vType_car_3.760266384767045" accel="1.0" decel="5.0" sigma="0.0" length="4.5" maxSpeed="1.044518440213068" /><vType id="vType_car_7.442422861113759" accel="1.0" decel="5.0" sigma="0.0" length="4.5" maxSpeed="2.0673396836427105" /><vType id="vType_car_21.796179822208398" accel="1.0" decel="5.0" sigma="0.0" length="4.5" maxSpeed="6.054494395057888" /><vType id="vType_car_11.4809970269968" accel="1.0" decel="5.0" sigma="0.0" length="4.5" maxSpeed="3.189165840832444" /><vType id="vType_car_27.199558097790806" accel="1.0" decel="5.0" sigma="0.0" length="4.5" maxSpeed="7.555432804941891" /><vType id="vType_car_3.7979423040464932" accel="1.0" decel="5.0" sigma="0.0" length="4.5" maxSpeed="1.054983973346248" /><vType id="vType_car_22.91000417453696" accel="1.0" decel="5.0" sigma="0.0" length="4.5" maxSpeed="6.363890048482489" /><vType id="vType_car_3.7777263175403517" accel="1.0" decel="5.0" sigma="0.0" length="4.5" maxSpeed="1.0493684215389865" /><vType id="vType_car_3.305510527847808" accel="1.0" decel="5.0" sigma="0.0" length="4.5" maxSpeed="0.9181973688466133" /><vType id="vType_car_2.1842660753253584" accel="1.0" decel="5.0" sigma="0.0" length="4.5" maxSpeed="0.6067405764792663" /><vType id="vType_car_4.4274573824779555" accel="1.0" decel="5.0" sigma="0.0" length="4.5" maxSpeed="1.2298492729105432" /><vType id="vType_car_23.125550101983855" accel="1.0" decel="5.0" sigma="0.0" length="4.5" maxSpeed="6.423763917217737" /><vType id="vType_car_29.416414973167093" accel="1.0" decel="5.0" sigma="0.0" length="4.5" maxSpeed="8.171226381435304" /><vType id="vType_bus_6.714039287728151" accel="1.0" decel="5.0" sigma="0.0" length="13" maxSpeed="1.8650109132578196" /><vType id="vType_car_6.666861022277734" accel="1.0" decel="5.0" sigma="0.0" length="4.5" maxSpeed="1.8519058395215928" /><vType id="vType_bus_9.223594567201033" accel="1.0" decel="5.0" sigma="0.0" length="13" maxSpeed="2.562109602000287" /><vType id="vType_car_31.076454922671473" accel="1.0" decel="5.0" sigma="0.0" length="4.5" maxSpeed="8.632348589630965" /><vType id="vType_truck_5.631501897606789" accel="1.0" decel="5.0" sigma="0.0" length="8" maxSpeed="1.5643060826685524" /><vType id="vType_car_10.797712678481954" accel="1.0" decel="5.0" sigma="0.0" length="4.5" maxSpeed="2.9993646329116537" /><vType id="vType_car_29.96535784793937" accel="1.0" decel="5.0" sigma="0.0" length="4.5" maxSpeed="8.323710513316492" /><vType id="vType_car_20.779601327761043" accel="1.0" decel="5.0" sigma="0.0" length="4.5" maxSpeed="5.772111479933623" /><vType id="vType_car_17.11926559845345" accel="1.0" decel="5.0" sigma="0.0" length="4.5" maxSpeed="4.755351555125958" /><vType id="vType_car_23.175025069430642" accel="1.0" decel="5.0" sigma="0.0" length="4.5" maxSpeed="6.437506963730733" /><vType id="vType_car_25.22632825392259" accel="1.0" decel="5.0" sigma="0.0" length="4.5" maxSpeed="7.007313403867386" /><vType id="vType_car_20.024327325196875" accel="1.0" decel="5.0" sigma="0.0" length="4.5" maxSpeed="5.56231314588802" /><vType id="vType_truck_17.412709909679904" accel="1.0" decel="5.0" sigma="0.0" length="8" maxSpeed="4.836863863799973" /><vType id="vType_car_18.751408022095017" accel="1.0" decel="5.0" sigma="0.0" length="4.5" maxSpeed="5.208724450581949" /><vType id="vType_car_3.8019425118835586" accel="1.0" decel="5.0" sigma="0.0" length="4.5" maxSpeed="1.0560951421898774" /><vType id="vType_car_26.52808279825187" accel="1.0" decel="5.0" sigma="0.0" length="4.5" maxSpeed="7.3689118884032965" /><vType id="vType_car_18.067775033382528" accel="1.0" decel="5.0" sigma="0.0" length="4.5" maxSpeed="5.0188263981618135" /><vType id="vType_car_25.502784470427255" accel="1.0" decel="5.0" sigma="0.0" length="4.5" maxSpeed="7.084106797340904" /><vType id="vType_car_4.353334423278546" accel="1.0" decel="5.0" sigma="0.0" length="4.5" maxSpeed="1.2092595620218183" /><vType id="vType_car_18.8081787626924" accel="1.0" decel="5.0" sigma="0.0" length="4.5" maxSpeed="5.224494100747889" /><vType id="vType_truck_33.098918579974196" accel="1.0" decel="5.0" sigma="0.0" length="8" maxSpeed="9.194144049992833" /><vType id="vType_truck_48.67047558134949" accel="1.0" decel="5.0" sigma="0.0" length="8" maxSpeed="13.51957655037486" /><vType id="vType_car_11.333178952621056" accel="1.0" decel="5.0" sigma="0.0" length="4.5" maxSpeed="3.14810526461696" /><vType id="vType_car_17.730114223905343" accel="1.0" decel="5.0" sigma="0.0" length="4.5" maxSpeed="4.925031728862595" /><vType id="vType_car_22.646521852526885" accel="1.0" decel="5.0" sigma="0.0" length="4.5" maxSpeed="6.290700514590801" /><vType id="vType_car_20.651376438100915" accel="1.0" decel="5.0" sigma="0.0" length="4.5" maxSpeed="5.7364934550280315" /><vType id="vType_car_26.744470531265254" accel="1.0" decel="5.0" sigma="0.0" length="4.5" maxSpeed="7.4290195920181255" /><vType id="vType_car_4.157744682366625" accel="1.0" decel="5.0" sigma="0.0" length="4.5" maxSpeed="1.1549290784351736" /><vType id="vType_car_23.14227359789605" accel="1.0" decel="5.0" sigma="0.0" length="4.5" maxSpeed="6.4284093327489025" /><vType id="vType_car_24.21503017595719" accel="1.0" decel="5.0" sigma="0.0" length="4.5" maxSpeed="6.726397271099219" /><vType id="vType_car_4.292606367157559" accel="1.0" decel="5.0" sigma="0.0" length="4.5" maxSpeed="1.1923906575437664" /><vType id="vType_car_4.368505598416399" accel="1.0" decel="5.0" sigma="0.0" length="4.5" maxSpeed="1.2134737773378885" /><vType id="vType_car_17.543773884977334" accel="1.0" decel="5.0" sigma="0.0" length="4.5" maxSpeed="4.873270523604815" /><vType id="vType_car_18.08203472306027" accel="1.0" decel="5.0" sigma="0.0" length="4.5" maxSpeed="5.022787423072297" /><vType id="vType_car_22.159846590923745" accel="1.0" decel="5.0" sigma="0.0" length="4.5" maxSpeed="6.155512941923263" /><vType id="vType_car_25.969842253739223" accel="1.0" decel="5.0" sigma="0.0" length="4.5" maxSpeed="7.213845070483117" /><vType id="vType_car_16.085275244203416" accel="1.0" decel="5.0" sigma="0.0" length="4.5" maxSpeed="4.468132012278726" /><vType id="vType_car_3.9126451145953647" accel="1.0" decel="5.0" sigma="0.0" length="4.5" maxSpeed="1.086845865165379" /><vType id="vType_car_15.067844580154336" accel="1.0" decel="5.0" sigma="0.0" length="4.5" maxSpeed="4.185512383376205" /><vType id="vType_car_18.500929310601474" accel="1.0" decel="5.0" sigma="0.0" length="4.5" maxSpeed="5.139147030722632" /><vType id="vType_car_32.844778284567404" accel="1.0" decel="5.0" sigma="0.0" length="4.5" maxSpeed="9.123549523490945" /><vType id="vType_car_3.777726317540352" accel="1.0" decel="5.0" sigma="0.0" length="4.5" maxSpeed="1.0493684215389867" /><vType id="vType_car_15.622927664872863" accel="1.0" decel="5.0" sigma="0.0" length="4.5" maxSpeed="4.339702129131351" /><vType id="vType_car_37.761451352491555" accel="1.0" decel="5.0" sigma="0.0" length="4.5" maxSpeed="10.489292042358764" /><vType id="vType_car_15.553144636847398" accel="1.0" decel="5.0" sigma="0.0" length="4.5" maxSpeed="4.320317954679832" /><vType id="vType_truck_69.27333266248483" accel="1.0" decel="5.0" sigma="0.0" length="8" maxSpeed="19.242592406245787" /><vType id="vType_car_10.050515215295256" accel="1.0" decel="5.0" sigma="0.0" length="4.5" maxSpeed="2.79180978202646" /><vType id="vType_truck_147.82022049122364" accel="1.0" decel="5.0" sigma="0.0" length="8" maxSpeed="41.06117235867323" /><vType id="vType_car_2.5184842116935684" accel="1.0" decel="5.0" sigma="0.0" length="4.5" maxSpeed="0.6995789476926578" /><vType id="vType_car_13.2348457386902" accel="1.0" decel="5.0" sigma="0.0" length="4.5" maxSpeed="3.6763460385250557" /><vType id="vType_car_28.327774085045178" accel="1.0" decel="5.0" sigma="0.0" length="4.5" maxSpeed="7.868826134734771" /><vType id="vType_car_7.666736937552647" accel="1.0" decel="5.0" sigma="0.0" length="4.5" maxSpeed="2.12964914932018" /><vType id="vType_car_11.88699776833661" accel="1.0" decel="5.0" sigma="0.0" length="4.5" maxSpeed="3.301943824537947" /><vType id="vType_car_5.8631873342066125" accel="1.0" decel="5.0" sigma="0.0" length="4.5" maxSpeed="1.6286631483907257" /><vType id="vType_car_5.705079296144997" accel="1.0" decel="5.0" sigma="0.0" length="4.5" maxSpeed="1.5847442489291659" /><vType id="vType_car_6.327130945364605" accel="1.0" decel="5.0" sigma="0.0" length="4.5" maxSpeed="1.7575363737123901" /><vType id="vType_car_9.130965705888164" accel="1.0" decel="5.0" sigma="0.0" length="4.5" maxSpeed="2.536379362746712" /><vType id="vType_car_7.292257707748621" accel="1.0" decel="5.0" sigma="0.0" length="4.5" maxSpeed="2.0256271410412836" /><vType id="vType_car_4.846228676180219" accel="1.0" decel="5.0" sigma="0.0" length="4.5" maxSpeed="1.3461746322722832" /><vType id="vType_car_8.217752861246158" accel="1.0" decel="5.0" sigma="0.0" length="4.5" maxSpeed="2.282709128123933" /><vType id="vType_car_39.67427074421124" accel="1.0" decel="5.0" sigma="0.0" length="4.5" maxSpeed="11.0206307622809" /><vType id="vType_car_22.515061435816712" accel="1.0" decel="5.0" sigma="0.0" length="4.5" maxSpeed="6.254183732171309" /><vType id="vType_car_0.6296210529233921" accel="1.0" decel="5.0" sigma="0.0" length="4.5" maxSpeed="0.17489473692316446" /><vType id="vType_car_2.833294738155264" accel="1.0" decel="5.0" sigma="0.0" length="4.5" maxSpeed="0.78702631615424" /><vType id="vType_car_35.97801676098377" accel="1.0" decel="5.0" sigma="0.0" length="4.5" maxSpeed="9.993893544717714" /><vType id="vType_car_3.6685201588598515" accel="1.0" decel="5.0" sigma="0.0" length="4.5" maxSpeed="1.0190333774610698" /><vType id="vType_car_7.00710142867628" accel="1.0" decel="5.0" sigma="0.0" length="4.5" maxSpeed="1.9464170635211888" /><vType id="vType_car_40.99915396210502" accel="1.0" decel="5.0" sigma="0.0" length="4.5" maxSpeed="11.388653878362506" /><vType id="vType_car_24.32785456849556" accel="1.0" decel="5.0" sigma="0.0" length="4.5" maxSpeed="6.757737380137655" /><vType id="vType_car_24.771899645235653" accel="1.0" decel="5.0" sigma="0.0" length="4.5" maxSpeed="6.881083234787681" /><vType id="vType_car_27.872714823651734" accel="1.0" decel="5.0" sigma="0.0" length="4.5" maxSpeed="7.742420784347703" /><vType id="vType_car_3.442993896446175" accel="1.0" decel="5.0" sigma="0.0" length="4.5" maxSpeed="0.9563871934572709" /><vType id="vType_car_12.320522820628511" accel="1.0" decel="5.0" sigma="0.0" length="4.5" maxSpeed="3.4223674501745864" /><vType id="vType_car_29.725096143301442" accel="1.0" decel="5.0" sigma="0.0" length="4.5" maxSpeed="8.256971150917067" /><vType id="vType_car_30.141725774534144" accel="1.0" decel="5.0" sigma="0.0" length="4.5" maxSpeed="8.372701604037262" /><vType id="vType_car_23.88214626666245" accel="1.0" decel="5.0" sigma="0.0" length="4.5" maxSpeed="6.633929518517347" /><vType id="vType_car_31.581461339850442" accel="1.0" decel="5.0" sigma="0.0" length="4.5" maxSpeed="8.772628149958456" /><vType id="vType_car_49.23001044757083" accel="1.0" decel="5.0" sigma="0.0" length="4.5" maxSpeed="13.675002902103007" /><vType id="vType_car_47.636496159573575" accel="1.0" decel="5.0" sigma="0.0" length="4.5" maxSpeed="13.232360044325993" /><vType id="vType_car_8.259117466575614" accel="1.0" decel="5.0" sigma="0.0" length="4.5" maxSpeed="2.2941992962710036" /><vType id="vType_car_26.91515200433197" accel="1.0" decel="5.0" sigma="0.0" length="4.5" maxSpeed="7.476431112314436" /><vType id="vType_car_47.69206486060341" accel="1.0" decel="5.0" sigma="0.0" length="4.5" maxSpeed="13.247795794612058" /><vType id="vType_car_53.349522439162484" accel="1.0" decel="5.0" sigma="0.0" length="4.5" maxSpeed="14.819311788656245" /><vType id="vType_car_49.74214674892596" accel="1.0" decel="5.0" sigma="0.0" length="4.5" maxSpeed="13.817262985812766" /><vType id="vType_car_40.505723172790326" accel="1.0" decel="5.0" sigma="0.0" length="4.5" maxSpeed="11.251589770219535" /><vType id="vType_car_35.1783186110579" accel="1.0" decel="5.0" sigma="0.0" length="4.5" maxSpeed="9.771755169738304" /><vType id="vType_car_39.84159051089767" accel="1.0" decel="5.0" sigma="0.0" length="4.5" maxSpeed="11.067108475249352" /><vType id="vType_car_48.23311862223592" accel="1.0" decel="5.0" sigma="0.0" length="4.5" maxSpeed="13.398088506176645" /><vType id="vType_car_20.381781268986728" accel="1.0" decel="5.0" sigma="0.0" length="4.5" maxSpeed="5.661605908051869" /><vType id="vType_car_11.648677114613797" accel="1.0" decel="5.0" sigma="0.0" length="4.5" maxSpeed="3.2357436429482767" /><vType id="vType_car_18.625182542089117" accel="1.0" decel="5.0" sigma="0.0" length="4.5" maxSpeed="5.173661817246977" /><vType id="vType_car_30.33197331328488" accel="1.0" decel="5.0" sigma="0.0" length="4.5" maxSpeed="8.425548142579133" /><vType id="vType_car_17.980718767775926" accel="1.0" decel="5.0" sigma="0.0" length="4.5" maxSpeed="4.994644102159979" /><vType id="vType_car_24.37399427296415" accel="1.0" decel="5.0" sigma="0.0" length="4.5" maxSpeed="6.7705539647122635" /><vType id="vType_car_18.183954306723884" accel="1.0" decel="5.0" sigma="0.0" length="4.5" maxSpeed="5.051098418534412" /><vType id="vType_car_6.820160054800029" accel="1.0" decel="5.0" sigma="0.0" length="4.5" maxSpeed="1.894488904111119" /><vType id="vType_car_29.83341893495115" accel="1.0" decel="5.0" sigma="0.0" length="4.5" maxSpeed="8.287060815264208" /><vType id="vType_car_15.851789279363972" accel="1.0" decel="5.0" sigma="0.0" length="4.5" maxSpeed="4.4032747998233255" /><vType id="vType_car_20.664008600406753" accel="1.0" decel="5.0" sigma="0.0" length="4.5" maxSpeed="5.740002389001876" /><vType id="vType_car_18.18364352353258" accel="1.0" decel="5.0" sigma="0.0" length="4.5" maxSpeed="5.051012089870161" /><vType id="vType_car_4.291008938510629" accel="1.0" decel="5.0" sigma="0.0" length="4.5" maxSpeed="1.1919469273640635" /><vType id="vType_car_14.75552474982933" accel="1.0" decel="5.0" sigma="0.0" length="4.5" maxSpeed="4.098756874952592" /><vType id="vType_truck_5.278726770290875" accel="1.0" decel="5.0" sigma="0.0" length="8" maxSpeed="1.4663129917474653" /><vType id="vType_car_5.31160956803062" accel="1.0" decel="5.0" sigma="0.0" length="4.5" maxSpeed="1.4754471022307276" /><vType id="vType_car_27.97031231017948" accel="1.0" decel="5.0" sigma="0.0" length="4.5" maxSpeed="7.7695311972720775" /><vType id="vType_car_16.905647408302958" accel="1.0" decel="5.0" sigma="0.0" length="4.5" maxSpeed="4.696013168973043" /><vType id="vType_car_26.32010388092511" accel="1.0" decel="5.0" sigma="0.0" length="4.5" maxSpeed="7.311139966923641" /><vType id="vType_car_14.409368876398254" accel="1.0" decel="5.0" sigma="0.0" length="4.5" maxSpeed="4.002602465666182" /><vType id="vType_car_8.851250439104119" accel="1.0" decel="5.0" sigma="0.0" length="4.5" maxSpeed="2.4586806775289216" /><vType id="vType_car_5.183843333014108" accel="1.0" decel="5.0" sigma="0.0" length="4.5" maxSpeed="1.4399564813928079" /><vType id="vType_car_25.64349004227892" accel="1.0" decel="5.0" sigma="0.0" length="4.5" maxSpeed="7.1231916784108105" /><vType id="vType_car_29.13063028106245" accel="1.0" decel="5.0" sigma="0.0" length="4.5" maxSpeed="8.09184174473957" /><vType id="vType_car_3.8687239949662056" accel="1.0" decel="5.0" sigma="0.0" length="4.5" maxSpeed="1.0746455541572792" /><vType id="vType_car_15.490316339113264" accel="1.0" decel="5.0" sigma="0.0" length="4.5" maxSpeed="4.302865649753684" /><vType id="vType_car_30.658584196259905" accel="1.0" decel="5.0" sigma="0.0" length="4.5" maxSpeed="8.516273387849974" /><vType id="vType_car_13.81176205551373" accel="1.0" decel="5.0" sigma="0.0" length="4.5" maxSpeed="3.836600570976036" /><vType id="vType_car_30.566819643596645" accel="1.0" decel="5.0" sigma="0.0" length="4.5" maxSpeed="8.490783234332401" /><vType id="vType_car_16.784959571687363" accel="1.0" decel="5.0" sigma="0.0" length="4.5" maxSpeed="4.662488769913156" /><vType id="vType_car_4.566090066626365" accel="1.0" decel="5.0" sigma="0.0" length="4.5" maxSpeed="1.268358351840657" /><vType id="vType_car_31.666318345595005" accel="1.0" decel="5.0" sigma="0.0" length="4.5" maxSpeed="8.796199540443057" /><vType id="vType_car_15.173917546011186" accel="1.0" decel="5.0" sigma="0.0" length="4.5" maxSpeed="4.214977096114218" /><vType id="vType_car_32.77733908592844" accel="1.0" decel="5.0" sigma="0.0" length="4.5" maxSpeed="9.1048164127579" /><vType id="vType_car_3.709166966649647" accel="1.0" decel="5.0" sigma="0.0" length="4.5" maxSpeed="1.0303241574026798" /><vType id="vType_car_21.968118015955223" accel="1.0" decel="5.0" sigma="0.0" length="4.5" maxSpeed="6.102255004432006" /><vType id="vType_car_13.173787118863268" accel="1.0" decel="5.0" sigma="0.0" length="4.5" maxSpeed="3.6593853107953525" /><vType id="vType_car_9.562529744199708" accel="1.0" decel="5.0" sigma="0.0" length="4.5" maxSpeed="2.6562582622776967" /><vType id="vType_car_22.08803818645816" accel="1.0" decel="5.0" sigma="0.0" length="4.5" maxSpeed="6.135566162905044" /><vType id="vType_car_9.452063904588497" accel="1.0" decel="5.0" sigma="0.0" length="4.5" maxSpeed="2.625573306830138" /><vType id="vType_car_15.150843353209735" accel="1.0" decel="5.0" sigma="0.0" length="4.5" maxSpeed="4.208567598113815" /><vType id="vType_car_10.849938024667539" accel="1.0" decel="5.0" sigma="0.0" length="4.5" maxSpeed="3.0138716735187607" /><vType id="vType_car_22.585687203741756" accel="1.0" decel="5.0" sigma="0.0" length="4.5" maxSpeed="6.2738020010393765" /><vType id="vType_car_12.03766329881963" accel="1.0" decel="5.0" sigma="0.0" length="4.5" maxSpeed="3.3437953607832305" /><vType id="vType_car_18.454462120347383" accel="1.0" decel="5.0" sigma="0.0" length="4.5" maxSpeed="5.126239477874273" /><vType id="vType_car_31.086136975386545" accel="1.0" decel="5.0" sigma="0.0" length="4.5" maxSpeed="8.635038048718485" /><vType id="vType_car_21.6147393887263" accel="1.0" decel="5.0" sigma="0.0" length="4.5" maxSpeed="6.004094274646194" /><vType id="vType_car_3.9559958136261772" accel="1.0" decel="5.0" sigma="0.0" length="4.5" maxSpeed="1.0988877260072714" /><vType id="vType_car_23.429596796418707" accel="1.0" decel="5.0" sigma="0.0" length="4.5" maxSpeed="6.50822133233853" /><vType id="vType_car_9.68667255611444" accel="1.0" decel="5.0" sigma="0.0" length="4.5" maxSpeed="2.6907423766984553" /><vType id="vType_car_17.86771213448237" accel="1.0" decel="5.0" sigma="0.0" length="4.5" maxSpeed="4.963253370689547" /><vType id="vType_car_5.497102295791404" accel="1.0" decel="5.0" sigma="0.0" length="4.5" maxSpeed="1.5269728599420564" /><vType id="vType_car_19.07544298596042" accel="1.0" decel="5.0" sigma="0.0" length="4.5" maxSpeed="5.298734162766784" /><vType id="vType_car_32.28942375775278" accel="1.0" decel="5.0" sigma="0.0" length="4.5" maxSpeed="8.96928437715355" /><vType id="vType_car_4.996344532957549" accel="1.0" decel="5.0" sigma="0.0" length="4.5" maxSpeed="1.387873481377097" /><vType id="vType_car_31.133163136935632" accel="1.0" decel="5.0" sigma="0.0" length="4.5" maxSpeed="8.648100871371009" /><vType id="vType_car_7.43721292053962" accel="1.0" decel="5.0" sigma="0.0" length="4.5" maxSpeed="2.0658924779276724" /><vType id="vType_car_20.393470343268977" accel="1.0" decel="5.0" sigma="0.0" length="4.5" maxSpeed="5.664852873130271" /><vType id="vType_car_28.128904814879945" accel="1.0" decel="5.0" sigma="0.0" length="4.5" maxSpeed="7.813584670799985" /><vType id="vType_car_30.814013999425374" accel="1.0" decel="5.0" sigma="0.0" length="4.5" maxSpeed="8.559448333173714" /><vType id="vType_car_5.956385737722251" accel="1.0" decel="5.0" sigma="0.0" length="4.5" maxSpeed="1.6545515938117363" /><vType id="vType_car_21.936259421938573" accel="1.0" decel="5.0" sigma="0.0" length="4.5" maxSpeed="6.093405394982937" /><vType id="vType_car_21.829514507095976" accel="1.0" decel="5.0" sigma="0.0" length="4.5" maxSpeed="6.063754029748882" /><vType id="vType_car_10.365011367992054" accel="1.0" decel="5.0" sigma="0.0" length="4.5" maxSpeed="2.8791698244422372" /><vType id="vType_car_23.040615032518225" accel="1.0" decel="5.0" sigma="0.0" length="4.5" maxSpeed="6.400170842366173" /><vType id="vType_car_18.261373463256316" accel="1.0" decel="5.0" sigma="0.0" length="4.5" maxSpeed="5.072603739793421" /><vType id="vType_car_17.770785504687016" accel="1.0" decel="5.0" sigma="0.0" length="4.5" maxSpeed="4.9363293068575045" /><vType id="vType_car_31.90002499168364" accel="1.0" decel="5.0" sigma="0.0" length="4.5" maxSpeed="8.861118053245455" /><vType id="vType_car_24.603819096199615" accel="1.0" decel="5.0" sigma="0.0" length="4.5" maxSpeed="6.834394193388782" /><vType id="vType_car_19.10052705551995" accel="1.0" decel="5.0" sigma="0.0" length="4.5" maxSpeed="5.305701959866653" /><vType id="vType_car_20.35741204093634" accel="1.0" decel="5.0" sigma="0.0" length="4.5" maxSpeed="5.654836678037872" /><vType id="vType_car_28.537126335814904" accel="1.0" decel="5.0" sigma="0.0" length="4.5" maxSpeed="7.926979537726362" /><vType id="vType_car_20.709613429335562" accel="1.0" decel="5.0" sigma="0.0" length="4.5" maxSpeed="5.752670397037656" /><vType id="vType_car_20.07889079802953" accel="1.0" decel="5.0" sigma="0.0" length="4.5" maxSpeed="5.577469666119314" /><vType id="vType_car_20.682612880296684" accel="1.0" decel="5.0" sigma="0.0" length="4.5" maxSpeed="5.745170244526856" /><vType id="vType_truck_20.39010192590614" accel="1.0" decel="5.0" sigma="0.0" length="8" maxSpeed="5.6639172016405945" /><vType id="vType_car_21.275185849022815" accel="1.0" decel="5.0" sigma="0.0" length="4.5" maxSpeed="5.909773846950782" /><vType id="vType_car_23.622827935104016" accel="1.0" decel="5.0" sigma="0.0" length="4.5" maxSpeed="6.561896648640005" /><vType id="vType_car_41.7457641051271" accel="1.0" decel="5.0" sigma="0.0" length="4.5" maxSpeed="11.596045584757528" /><vType id="vType_car_21.582281603566674" accel="1.0" decel="5.0" sigma="0.0" length="4.5" maxSpeed="5.995078223212965" /><vType id="vType_car_21.31671503747764" accel="1.0" decel="5.0" sigma="0.0" length="4.5" maxSpeed="5.921309732632677" /><vType id="vType_car_34.994455475603324" accel="1.0" decel="5.0" sigma="0.0" length="4.5" maxSpeed="9.720682076556479" /><vType id="vType_car_11.79335619883541" accel="1.0" decel="5.0" sigma="0.0" length="4.5" maxSpeed="3.2759322774542805" /><vType id="vType_car_43.44494415461909" accel="1.0" decel="5.0" sigma="0.0" length="4.5" maxSpeed="12.068040042949747" /><vType id="vType_car_6.043665264598961" accel="1.0" decel="5.0" sigma="0.0" length="4.5" maxSpeed="1.6787959068330447" /><vType id="vType_car_20.51628538486087" accel="1.0" decel="5.0" sigma="0.0" length="4.5" maxSpeed="5.698968162461353" /><vType id="vType_car_3.5069840440125715" accel="1.0" decel="5.0" sigma="0.0" length="4.5" maxSpeed="0.9741622344479365" /><vType id="vType_car_6.144377281512068" accel="1.0" decel="5.0" sigma="0.0" length="4.5" maxSpeed="1.7067714670866856" /><vType id="vType_car_14.805320510375998" accel="1.0" decel="5.0" sigma="0.0" length="4.5" maxSpeed="4.112589030659999" /><vType id="vType_car_8.443021469486265" accel="1.0" decel="5.0" sigma="0.0" length="4.5" maxSpeed="2.3452837415239625" /><vType id="vType_car_35.122860847050994" accel="1.0" decel="5.0" sigma="0.0" length="4.5" maxSpeed="9.756350235291942" /><vType id="vType_car_4.255979974621239" accel="1.0" decel="5.0" sigma="0.0" length="4.5" maxSpeed="1.1822166596170107" /><vType id="vType_car_34.656521782661144" accel="1.0" decel="5.0" sigma="0.0" length="4.5" maxSpeed="9.626811606294762" /><vType id="vType_car_25.21253244140342" accel="1.0" decel="5.0" sigma="0.0" length="4.5" maxSpeed="7.003481233723172" /><vType id="vType_car_17.765453614542444" accel="1.0" decel="5.0" sigma="0.0" length="4.5" maxSpeed="4.93484822626179" /><vType id="vType_car_7.432920325768895" accel="1.0" decel="5.0" sigma="0.0" length="4.5" maxSpeed="2.0647000904913595" /><vType id="vType_car_3.3749484674026946" accel="1.0" decel="5.0" sigma="0.0" length="4.5" maxSpeed="0.9374856853896374" /><vType id="vType_car_4.08945615297426" accel="1.0" decel="5.0" sigma="0.0" length="4.5" maxSpeed="1.13596004249285" /><vType id="vType_car_20.051996863210675" accel="1.0" decel="5.0" sigma="0.0" length="4.5" maxSpeed="5.5699991286696315" /><vType id="vType_car_4.587487527764766" accel="1.0" decel="5.0" sigma="0.0" length="4.5" maxSpeed="1.2743020910457685" /><vType id="vType_car_34.9745427129922" accel="1.0" decel="5.0" sigma="0.0" length="4.5" maxSpeed="9.715150753608945" /><vType id="vType_car_4.522690819265191" accel="1.0" decel="5.0" sigma="0.0" length="4.5" maxSpeed="1.256303005351442" /><vType id="vType_car_38.27242842084179" accel="1.0" decel="5.0" sigma="0.0" length="4.5" maxSpeed="10.631230116900497" /><vType id="vType_car_37.78753202392149" accel="1.0" decel="5.0" sigma="0.0" length="4.5" maxSpeed="10.496536673311526" /><vType id="vType_car_15.145907910776883" accel="1.0" decel="5.0" sigma="0.0" length="4.5" maxSpeed="4.207196641882467" /><vType id="vType_car_35.34874854801056" accel="1.0" decel="5.0" sigma="0.0" length="4.5" maxSpeed="9.819096818891822" /><vType id="vType_car_41.38420801824476" accel="1.0" decel="5.0" sigma="0.0" length="4.5" maxSpeed="11.495613338401323" /><vType id="vType_car_39.886798494545395" accel="1.0" decel="5.0" sigma="0.0" length="4.5" maxSpeed="11.079666248484832" /><vType id="vType_car_45.570466812219216" accel="1.0" decel="5.0" sigma="0.0" length="4.5" maxSpeed="12.658463003394226" /><vType id="vType_car_44.89889069571083" accel="1.0" decel="5.0" sigma="0.0" length="4.5" maxSpeed="12.471914082141897" /><vType id="vType_car_87.05770856714643" accel="1.0" decel="5.0" sigma="0.0" length="4.5" maxSpeed="24.18269682420734" /><vType id="vType_car_42.177394421598656" accel="1.0" decel="5.0" sigma="0.0" length="4.5" maxSpeed="11.715942894888515" /><vType id="vType_car_12.737378050936753" accel="1.0" decel="5.0" sigma="0.0" length="4.5" maxSpeed="3.5381605697046536" /><vType id="vType_car_59.63641887291285" accel="1.0" decel="5.0" sigma="0.0" length="4.5" maxSpeed="16.56567190914246" /><vType id="vType_car_4.6688710828025135" accel="1.0" decel="5.0" sigma="0.0" length="4.5" maxSpeed="1.2969086341118092" /><vType id="vType_car_3.8344748166886364" accel="1.0" decel="5.0" sigma="0.0" length="4.5" maxSpeed="1.0651318935246212" /><vType id="vType_car_3.4169855542639933" accel="1.0" decel="5.0" sigma="0.0" length="4.5" maxSpeed="0.9491626539622203" /><route id="route_north_to_east" edges="north_to_center center_to_east" /><route id="route_north_to_south" edges="north_to_center center_to_south" /><route id="route_north_to_west" edges="north_to_center center_to_west" /><route id="r