<?xml version='1.0' encoding='utf-8'?>
<routes>
	<vType id="vType_car_17.226385965292618" accel="1.0" decel="5.0" sigma="0.0" length="4.5" maxSpeed="4.785107212581282" />
	<vType id="vType_truck_77.14081407098818" accel="1.0" decel="5.0" sigma="0.0" length="8" maxSpeed="21.428003908607828" />
	<vType id="vType_truck_72.08300784320664" accel="1.0" decel="5.0" sigma="0.0" length="8" maxSpeed="20.023057734224068" />
	<vType id="vType_car_19.571379986770882" accel="1.0" decel="5.0" sigma="0.0" length="4.5" maxSpeed="5.43649444076969" />
	<vType id="vType_truck_8.420425268459235" accel="1.0" decel="5.0" sigma="0.0" length="8" maxSpeed="2.3390070190164542" />
	<vType id="vType_car_19.586026815474245" accel="1.0" decel="5.0" sigma="0.0" length="4.5" maxSpeed="5.440563004298402" />
	<vType id="vType_car_24.382307165594696" accel="1.0" decel="5.0" sigma="0.0" length="4.5" maxSpeed="6.772863101554082" />
	<vType id="vType_car_3.84247156384719" accel="1.0" decel="5.0" sigma="0.0" length="4.5" maxSpeed="1.067353212179775" />
	<vType id="vType_car_10.377142895340821" accel="1.0" decel="5.0" sigma="0.0" length="4.5" maxSpeed="2.882539693150228" />
	<vType id="vType_car_4.14711206468948" accel="1.0" decel="5.0" sigma="0.0" length="4.5" maxSpeed="1.1519755735248556" />
	<vType id="vType_car_4.847366999188682" accel="1.0" decel="5.0" sigma="0.0" length="4.5" maxSpeed="1.3464908331079672" />
	<vType id="vType_car_19.70121819599991" accel="1.0" decel="5.0" sigma="0.0" length="4.5" maxSpeed="5.472560609999975" />
	<vType id="vType_car_3.7579623242877083" accel="1.0" decel="5.0" sigma="0.0" length="4.5" maxSpeed="1.0438784234132523" />
	<vType id="vType_car_9.239588247826369" accel="1.0" decel="5.0" sigma="0.0" length="4.5" maxSpeed="2.56655229106288" />
	<vType id="vType_car_12.57042528729465" accel="1.0" decel="5.0" sigma="0.0" length="4.5" maxSpeed="3.4917848020262916" />
	<vType id="vType_car_23.806152747784758" accel="1.0" decel="5.0" sigma="0.0" length="4.5" maxSpeed="6.612820207717988" />
	<vType id="vType_car_4.303242359530371" accel="1.0" decel="5.0" sigma="0.0" length="4.5" maxSpeed="1.1953450998695474" />
	<vType id="vType_car_22.056149695345656" accel="1.0" decel="5.0" sigma="0.0" length="4.5" maxSpeed="6.126708248707127" />
	<vType id="vType_car_19.729312855332203" accel="1.0" decel="5.0" sigma="0.0" length="4.5" maxSpeed="5.480364682036723" />
	<vType id="vType_car_26.232200822571528" accel="1.0" decel="5.0" sigma="0.0" length="4.5" maxSpeed="7.286722450714313" />
	<vType id="vType_car_15.73773486569653" accel="1.0" decel="5.0" sigma="0.0" length="4.5" maxSpeed="4.371593018249036" />
	<vType id="vType_car_34.74220556862297" accel="1.0" decel="5.0" sigma="0.0" length="4.5" maxSpeed="9.650612657950825" />
	<vType id="vType_car_4.578819430009872" accel="1.0" decel="5.0" sigma="0.0" length="4.5" maxSpeed="1.2718942861138534" />
	<vType id="vType_car_4.967632138978709" accel="1.0" decel="5.0" sigma="0.0" length="4.5" maxSpeed="1.3798978163829745" />
	<vType id="vType_car_4.935935336142587" accel="1.0" decel="5.0" sigma="0.0" length="4.5" maxSpeed="1.3710931489284965" />
	<vType id="vType_car_8.403059213990426" accel="1.0" decel="5.0" sigma="0.0" length="4.5" maxSpeed="2.3341831149973404" />
	<vType id="vType_car_10.792694904415962" accel="1.0" decel="5.0" sigma="0.0" length="4.5" maxSpeed="2.9979708067822117" />
	<vType id="vType_car_15.461180465761771" accel="1.0" decel="5.0" sigma="0.0" length="4.5" maxSpeed="4.294772351600492" />
	<vType id="vType_car_51.36788205171679" accel="1.0" decel="5.0" sigma="0.0" length="4.5" maxSpeed="14.268856125476885" />
	<vType id="vType_car_47.71132866785864" accel="1.0" decel="5.0" sigma="0.0" length="4.5" maxSpeed="13.253146852182955" />
	<vType id="vType_car_17.497454846042693" accel="1.0" decel="5.0" sigma="0.0" length="4.5" maxSpeed="4.860404123900748" />
	<vType id="vType_car_14.983720120457898" accel="1.0" decel="5.0" sigma="0.0" length="4.5" maxSpeed="4.162144477904971" />
	<vType id="vType_truck_23.452186065475782" accel="1.0" decel="5.0" sigma="0.0" length="8" maxSpeed="6.514496129298828" />
	<vType id="vType_car_39.755654759755146" accel="1.0" decel="5.0" sigma="0.0" length="4.5" maxSpeed="11.043237433265318" />
	<vType id="vType_car_24.37745235210145" accel="1.0" decel="5.0" sigma="0.0" length="4.5" maxSpeed="6.771514542250403" />
	<vType id="vType_car_26.52227205692532" accel="1.0" decel="5.0" sigma="0.0" length="4.5" maxSpeed="7.3672977935903665" />
	<vType id="vType_car_31.079722257924644" accel="1.0" decel="5.0" sigma="0.0" length="4.5" maxSpeed="8.633256182756845" />
	<vType id="vType_car_35.518806240310745" accel="1.0" decel="5.0" sigma="0.0" length="4.5" maxSpeed="9.866335066752985" />
	<vType id="vType_car_38.20795101740724" accel="1.0" decel="5.0" sigma="0.0" length="4.5" maxSpeed="10.613319727057567" />
	<vType id="vType_car_9.733262487077566" accel="1.0" decel="5.0" sigma="0.0" length="4.5" maxSpeed="2.7036840241882127" />
	<vType id="vType_car_4.399898926340982" accel="1.0" decel="5.0" sigma="0.0" length="4.5" maxSpeed="1.2221941462058283" />
	<vType id="vType_car_5.132194373788085" accel="1.0" decel="5.0" sigma="0.0" length="4.5" maxSpeed="1.425609548274468" />
	<vType id="vType_car_4.977774134480612" accel="1.0" decel="5.0" sigma="0.0" length="4.5" maxSpeed="1.3827150373557255" />
	<vType id="vType_car_56.262624659841435" accel="1.0" decel="5.0" sigma="0.0" length="4.5" maxSpeed="15.628506849955954" />
	<vType id="vType_car_4.499421032591452" accel="1.0" decel="5.0" sigma="0.0" length="4.5" maxSpeed="1.2498391757198477" />
	<vType id="vType_car_6.904625737237578" accel="1.0" decel="5.0" sigma="0.0" length="4.5" maxSpeed="1.917951593677105" />
	<vType id="vType_car_27.282440354389717" accel="1.0" decel="5.0" sigma="0.0" length="4.5" maxSpeed="7.5784556539971435" />
    <vType id="vType_car_48.23085476185526" accel="1.0" decel="5.0" sigma="0.0" length="4.5" maxSpeed="13.397459656070906" />
	<vType id="vType_car_24.886774727384573" accel="1.0" decel="5.0" sigma="0.0" length="4.5" maxSpeed="6.912992979829048" />
	<vType id="vType_car_8.787221499775553" accel="1.0" decel="5.0" sigma="0.0" length="4.5" maxSpeed="2.440894861048765" />
	<vType id="vType_car_22.248485656977437" accel="1.0" decel="5.0" sigma="0.0" length="4.5" maxSpeed="6.180134904715954" />
	<vType id="vType_car_4.683438502648957" accel="1.0" decel="5.0" sigma="0.0" length="4.5" maxSpeed="1.3009551396247103" />
	<vType id="vType_car_19.875864322747304" accel="1.0" decel="5.0" sigma="0.0" length="4.5" maxSpeed="5.521073422985363" />
	<vType id="vType_car_23.130814417667775" accel="1.0" decel="5.0" sigma="0.0" length="4.5" maxSpeed="6.425226227129937" />
	<vType id="vType_car_24.62016728862032" accel="1.0" decel="5.0" sigma="0.0" length="4.5" maxSpeed="6.8389353579500884" />
	<vType id="vType_car_2.1007648034976065" accel="1.0" decel="5.0" sigma="0.0" length="4.5" maxSpeed="0.5835457787493351" />
	<vType id="vType_car_20.656247668080262" accel="1.0" decel="5.0" sigma="0.0" length="4.5" maxSpeed="5.737846574466739" />
	<vType id="vType_car_5.030813946078735" accel="1.0" decel="5.0" sigma="0.0" length="4.5" maxSpeed="1.397448318355204" />
	<vType id="vType_car_21.32377810639368" accel="1.0" decel="5.0" sigma="0.0" length="4.5" maxSpeed="5.923271696220466" />
	<vType id="vType_car_19.779634754765624" accel="1.0" decel="5.0" sigma="0.0" length="4.5" maxSpeed="5.494342987434895" />
	<vType id="vType_car_4.7956949653591" accel="1.0" decel="5.0" sigma="0.0" length="4.5" maxSpeed="1.3321374903775278" />
	<vType id="vType_car_15.792490292435179" accel="1.0" decel="5.0" sigma="0.0" length="4.5" maxSpeed="4.386802859009772" />
	<vType id="vType_car_5.436044534322538" accel="1.0" decel="5.0" sigma="0.0" length="4.5" maxSpeed="1.5100123706451494" />
	<vType id="vType_car_24.085127224579253" accel="1.0" decel="5.0" sigma="0.0" length="4.5" maxSpeed="6.690313117938681" />
	<vType id="vType_car_36.263417732742994" accel="1.0" decel="5.0" sigma="0.0" length="4.5" maxSpeed="10.07317159242861" />
	<vType id="vType_car_13.812185473285712" accel="1.0" decel="5.0" sigma="0.0" length="4.5" maxSpeed="3.8367181870238087" />
	<vType id="vType_car_1.3665317542864392" accel="1.0" decel="5.0" sigma="0.0" length="4.5" maxSpeed="0.37959215396845536" />
	<vType id="vType_car_14.401159451099364" accel="1.0" decel="5.0" sigma="0.0" length="4.5" maxSpeed="4.000322069749823" />
	<vType id="vType_car_16.135837693905618" accel="1.0" decel="5.0" sigma="0.0" length="4.5" maxSpeed="4.482177137196005" />
	<vType id="vType_car_12.662992276793641" accel="1.0" decel="5.0" sigma="0.0" length="4.5" maxSpeed="3.5174978546649003" />
	<vType id="vType_car_14.079580381058156" accel="1.0" decel="5.0" sigma="0.0" length="4.5" maxSpeed="3.910994550293932" />
	<vType id="vType_car_40.47412244517605" accel="1.0" decel="5.0" sigma="0.0" length="4.5" maxSpeed="11.24281179032668" />
	<vType id="vType_car_15.343389765680522" accel="1.0" decel="5.0" sigma="0.0" length="4.5" maxSpeed="4.262052712689034" />
	<vType id="vType_car_14.232747385676843" accel="1.0" decel="5.0" sigma="0.0" length="4.5" maxSpeed="3.9535409404657895" />
	<vType id="vType_car_13.75298658286536" accel="1.0" decel="5.0" sigma="0.0" length="4.5" maxSpeed="3.820274050795933" />
	<vType id="vType_car_25.09090451380502" accel="1.0" decel="5.0" sigma="0.0" length="4.5" maxSpeed="6.969695698279173" />
	<vType id="vType_car_5.052640664526124" accel="1.0" decel="5.0" sigma="0.0" length="4.5" maxSpeed="1.403511295701701" />
	<vType id="vType_car_51.01069941921491" accel="1.0" decel="5.0" sigma="0.0" length="4.5" maxSpeed="14.169638727559697" />
	<vType id="vType_car_14.025889635194359" accel="1.0" decel="5.0" sigma="0.0" length="4.5" maxSpeed="3.8960804542206553" />
	<vType id="vType_car_45.39703024984832" accel="1.0" decel="5.0" sigma="0.0" length="4.5" maxSpeed="12.610286180513421" />
	<vType id="vType_car_42.24624815069293" accel="1.0" decel="5.0" sigma="0.0" length="4.5" maxSpeed="11.735068930748035" />
	<vType id="vType_car_43.61687667012119" accel="1.0" decel="5.0" sigma="0.0" length="4.5" maxSpeed="12.115799075033662" />
	<vType id="vType_car_5.665530968562762" accel="1.0" decel="5.0" sigma="0.0" length="4.5" maxSpeed="1.573758602378545" />
	<vType id="vType_car_35.11158147052485" accel="1.0" decel="5.0" sigma="0.0" length="4.5" maxSpeed="9.753217075145791" />
	<vType id="vType_truck_45.87530265430506" accel="1.0" decel="5.0" sigma="0.0" length="8" maxSpeed="12.74313962619585" />
	<vType id="vType_car_41.58585097367956" accel="1.0" decel="5.0" sigma="0.0" length="4.5" maxSpeed="11.551625270466545" />
	<vType id="vType_car_5.143474966615876" accel="1.0" decel="5.0" sigma="0.0" length="4.5" maxSpeed="1.4287430462821877" />
	<vType id="vType_car_6.599377089674763" accel="1.0" decel="5.0" sigma="0.0" length="4.5" maxSpeed="1.8331603026874341" />
	<vType id="vType_car_47.28382533536414" accel="1.0" decel="5.0" sigma="0.0" length="4.5" maxSpeed="13.13439592649004" />
	<vType id="vType_car_42.501805508183836" accel="1.0" decel="5.0" sigma="0.0" length="4.5" maxSpeed="11.806057085606621" />
	<vType id="vType_car_3.7579623242877083" accel="1.0" decel="5.0" sigma="0.0" length="4.5" maxSpeed="1.0438784234132523" />
	<vType id="vType_car_20.845292176477116" accel="1.0" decel="5.0" sigma="0.0" length="4.5" maxSpeed="5.79035893791031" />
	<vType id="vType_car_18.914127246188734" accel="1.0" decel="5.0" sigma="0.0" length="4.5" maxSpeed="5.253924235052426" />
	<vType id="vType_car_15.511820159628657" accel="1.0" decel="5.0" sigma="0.0" length="4.5" maxSpeed="4.308838933230183" />
	<vType id="vType_car_17.91659770294415" accel="1.0" decel="5.0" sigma="0.0" length="4.5" maxSpeed="4.976832695262264" />
	<vType id="vType_car_13.661149367636153" accel="1.0" decel="5.0" sigma="0.0" length="4.5" maxSpeed="3.7947637132322645" />
	<vType id="vType_car_30.85060416763291" accel="1.0" decel="5.0" sigma="0.0" length="4.5" maxSpeed="8.56961226878692" />
	<vType id="vType_car_24.89712488641394" accel="1.0" decel="5.0" sigma="0.0" length="4.5" maxSpeed="6.915868024003872" />
	<vType id="vType_car_6.190166631943335" accel="1.0" decel="5.0" sigma="0.0" length="4.5" maxSpeed="1.7194907310953707" />
	<vType id="vType_car_22.570770657301235" accel="1.0" decel="5.0" sigma="0.0" length="4.5" maxSpeed="6.269658515917009" />
	<vType id="vType_car_5.120881784942663" accel="1.0" decel="5.0" sigma="0.0" length="4.5" maxSpeed="1.422467162484073" />
	<vType id="vType_car_4.497448043547598" accel="1.0" decel="5.0" sigma="0.0" length="4.5" maxSpeed="1.249291123207666" />
	<vType id="vType_car_3.9658216911336024" accel="1.0" decel="5.0" sigma="0.0" length="4.5" maxSpeed="1.1016171364260006" />
	<vType id="vType_car_38.84426025205717" accel="1.0" decel="5.0" sigma="0.0" length="4.5" maxSpeed="10.790072292238102" />
	<vType id="vType_car_11.491469351537072" accel="1.0" decel="5.0" sigma="0.0" length="4.5" maxSpeed="3.192074819871409" />
	<vType id="vType_car_42.404727514161664" accel="1.0" decel="5.0" sigma="0.0" length="4.5" maxSpeed="11.779090976156018" />
	<vType id="vType_car_16.89170899500803" accel="1.0" decel="5.0" sigma="0.0" length="4.5" maxSpeed="4.692141387502231" />
	<vType id="vType_car_10.764854026757316" accel="1.0" decel="5.0" sigma="0.0" length="4.5" maxSpeed="2.99023722965481" />
	<vType id="vType_car_67.80279785875875" accel="1.0" decel="5.0" sigma="0.0" length="4.5" maxSpeed="18.834110516321875" />
	<vType id="vType_car_5.333535926910913" accel="1.0" decel="5.0" sigma="0.0" length="4.5" maxSpeed="1.4815377574752535" />
	<vType id="vType_car_16.51471693243366" accel="1.0" decel="5.0" sigma="0.0" length="4.5" maxSpeed="4.587421370120461" />
	<vType id="vType_car_22.799032989715826" accel="1.0" decel="5.0" sigma="0.0" length="4.5" maxSpeed="6.333064719365507" />
	<vType id="vType_car_5.314561285894796" accel="1.0" decel="5.0" sigma="0.0" length="4.5" maxSpeed="1.4762670238596656" />
	<vType id="vType_car_20.935376926433165" accel="1.0" decel="5.0" sigma="0.0" length="4.5" maxSpeed="5.815382479564768" />
	<vType id="vType_car_4.169979220597939" accel="1.0" decel="5.0" sigma="0.0" length="4.5" maxSpeed="1.1583275612772053" />
	<vType id="vType_car_5.9738373572423304" accel="1.0" decel="5.0" sigma="0.0" length="4.5" maxSpeed="1.6593992659006473" />
	<route id="route_north_to_east" edges="north_to_center center_to_east" />
	<route id="route_north_to_south" edges="north_to_center center_to_south" />
	<route id="route_north_to_west" edges="north_to_center center_to_west" />
	<route id="route_east_to_west" edges="east_to_center center_to_west" />
	<route id="route_east_to_south" edges="east_to_center center_to_south" />
	<route id="route_east_to_north" edges="east_to_center center_to_north" />
	<route id="route_south_to_west" edges="south_to_center center_to_west" />
	<route id="route_south_to_north" edges="south_to_center center_to_north" />
	<route id="route_south_to_east" edges="south_to_center center_to_east" />
	<route id="route_west_to_south" edges="west_to_center center_to_south" />
	<route id="route_west_to_north" edges="west_to_center center_to_north" />
	<route id="route_west_to_east" edges="west_to_center center_to_east" />
	<vehicle id="veh158" type="vType_car_17.226385965292618" route="route_south_to_north" depart="361.21" />
	<vehicle id="veh160" type="vType_truck_77.14081407098818" route="route_west_to_east" depart="368.82" />
	<vehicle id="veh162" type="vType_truck_72.08300784320664" route="route_west_to_east" depart="370.76" />
	<vehicle id="veh163" type="vType_car_19.571379986770882" route="route_west_to_east" depart="373.55" />
	<vehicle id="veh165" type="vType_car_19.586026815474245" route="route_west_to_east" depart="375.66" />
	<vehicle id="veh166" type="vType_car_24.382307165594696" route="route_south_to_east" depart="375.73" />
	<vehicle id="veh171" type="vType_car_19.70121819599991" route="route_east_to_west" depart="383.50" />
	<vehicle id="veh173" type="vType_car_9.239588247826369" route="route_east_to_north" depart="384.88" />
	<vehicle id="veh174" type="vType_car_12.57042528729465" route="route_east_to_south" depart="387.49" />
	<vehicle id="veh176" type="vType_car_23.806152747784758" route="route_west_to_east" depart="388.80" />
	<vehicle id="veh178" type="vType_car_22.056149695345656" route="route_west_to_east" depart="393.03" />
	<vehicle id="veh180" type="vType_car_19.729312855332203" route="route_north_to_west" depart="394.13" />
	<vehicle id="veh182" type="vType_car_26.232200822571528" route="route_west_to_east" depart="395.54" />
	<vehicle id="veh184" type="vType_car_15.73773486569653" route="route_north_to_west" depart="399.70" />
	<vehicle id="veh185" type="vType_car_34.74220556862297" route="route_west_to_east" depart="400.10" />
	<vehicle id="veh190" type="vType_car_10.792694904415962" route="route_east_to_north" depart="413.71" />
	<vehicle id="veh191" type="vType_car_15.461180465761771" route="route_north_to_south" depart="417.07" />
	<vehicle id="veh192" type="vType_car_51.36788205171679" route="route_east_to_west" depart="424.61" />
	<vehicle id="veh194" type="vType_car_47.71132866785864" route="route_east_to_west" depart="429.81" />
	<vehicle id="veh195" type="vType_car_17.497454846042693" route="route_north_to_south" depart="430.98" />
	<vehicle id="veh196" type="vType_car_14.983720120457898" route="route_south_to_north" depart="436.24" />
	<vehicle id="veh198" type="vType_truck_23.452186065475782" route="route_west_to_east" depart="444.66" />
	<vehicle id="veh199" type="vType_car_39.755654759755146" route="route_south_to_north" depart="449.22" />
	<vehicle id="veh200" type="vType_car_24.37745235210145" route="route_west_to_east" depart="450.16" />
	<vehicle id="veh201" type="vType_car_26.52227205692532" route="route_east_to_west" depart="453.71" />
	<vehicle id="veh202" type="vType_car_31.079722257924644" route="route_west_to_east" depart="458.51" />
	<vehicle id="veh204" type="vType_car_35.518806240310745" route="route_west_to_east" depart="459.38" />
	<vehicle id="veh205" type="vType_car_38.20795101740724" route="route_west_to_east" depart="462.30" />
	<vehicle id="veh213" type="vType_car_56.262624659841435" route="route_west_to_east" depart="473.36" />
    <vehicle id="veh206" type="vType_car_48.23085476185526" route="route_south_to_west" depart="480.03" />
	<vehicle id="veh210" type="vType_car_24.886774727384573" route="route_north_to_south" depart="480.03" />
	<vehicle id="veh215" type="vType_car_8.787221499775553" route="route_east_to_north" depart="480.03" />
	<vehicle id="veh216" type="vType_car_22.248485656977437" route="route_west_to_east" depart="480.03" />
	<vehicle id="veh219" type="vType_car_19.875864322747304" route="route_west_to_east" depart="494.08" />
	<vehicle id="veh220" type="vType_car_23.130814417667775" route="route_east_to_west" depart="495.83" />
	<vehicle id="veh221" type="vType_car_24.62016728862032" route="route_south_to_north" depart="496.09" />
	<vehicle id="veh225" type="vType_car_20.656247668080262" route="route_east_to_west" depart="499.18" />
	<vehicle id="veh228" type="vType_car_21.32377810639368" route="route_east_to_west" depart="502.03" />
	<vehicle id="veh229" type="vType_car_19.779634754765624" route="route_south_to_east" depart="504.14" />
	<vehicle id="veh231" type="vType_car_15.792490292435179" route="route_north_to_south" depart="514.20" />
	<vehicle id="veh233" type="vType_car_24.085127224579253" route="route_south_to_north" depart="531.13" />
	<vehicle id="veh235" type="vType_car_36.263417732742994" route="route_south_to_north" depart="542.53" />
	<vehicle id="veh236" type="vType_car_13.812185473285712" route="route_east_to_south" depart="556.28" />
	<vehicle id="veh241" type="vType_car_14.401159451099364" route="route_east_to_south" depart="559.03" />
	<vehicle id="veh243" type="vType_car_16.135837693905618" route="route_north_to_west" depart="559.83" />
	<vehicle id="veh244" type="vType_car_12.662992276793641" route="route_north_to_east" depart="561.64" />
	<vehicle id="veh245" type="vType_car_14.079580381058156" route="route_east_to_south" depart="564.83" />
	<vehicle id="veh246" type="vType_car_40.47412244517605" route="route_east_to_west" depart="565.23" />
	<vehicle id="veh247" type="vType_car_15.343389765680522" route="route_north_to_west" depart="565.60" />
	<vehicle id="veh248" type="vType_car_14.232747385676843" route="route_north_to_south" depart="567.58" />
	<vehicle id="veh254" type="vType_car_51.01069941921491" route="route_east_to_west" depart="602.75" />
	<vehicle id="veh257" type="vType_car_14.025889635194359" route="route_east_to_north" depart="603.32" />
	<vehicle id="veh258" type="vType_car_45.39703024984832" route="route_west_to_east" depart="604.33" />
	<vehicle id="veh259" type="vType_car_42.24624815069293" route="route_east_to_west" depart="604.66" />
	<vehicle id="veh261" type="vType_car_43.61687667012119" route="route_west_to_east" depart="606.47" />
	<vehicle id="veh263" type="vType_car_35.11158147052485" route="route_east_to_west" depart="607.48" />
	<vehicle id="veh264" type="vType_truck_45.87530265430506" route="route_west_to_east" depart="608.89" />
	<vehicle id="veh265" type="vType_car_41.58585097367956" route="route_east_to_west" depart="609.25" />
	<vehicle id="veh268" type="vType_car_47.28382533536414" route="route_east_to_west" depart="612.61" />
	<vehicle id="veh269" type="vType_car_42.501805508183836" route="route_east_to_west" depart="613.24" />
	<vehicle id="veh273" type="vType_car_20.845292176477116" route="route_north_to_south" depart="614.05" />
	<vehicle id="veh277" type="vType_car_18.914127246188734" route="route_south_to_north" depart="618.57" />
	<vehicle id="veh278" type="vType_car_15.511820159628657" route="route_north_to_west" depart="621.16" />
	<vehicle id="veh280" type="vType_car_17.91659770294415" route="route_north_to_west" depart="629.17" />
	<vehicle id="veh281" type="vType_car_13.661149367636153" route="route_north_to_east" depart="629.40" />
	<vehicle id="veh284" type="vType_car_30.85060416763291" route="route_south_to_west" depart="632.36" />
	<vehicle id="veh285" type="vType_car_24.89712488641394" route="route_west_to_east" depart="642.88" />
	<vehicle id="veh287" type="vType_car_22.570770657301235" route="route_east_to_west" depart="644.86" />
	<vehicle id="veh291" type="vType_car_38.84426025205717" route="route_east_to_west" depart="649.19" />
	<vehicle id="veh292" type="vType_car_11.491469351537072" route="route_east_to_south" depart="650.63" />
	<vehicle id="veh294" type="vType_car_42.404727514161664" route="route_west_to_east" depart="651.20" />
	<vehicle id="veh296" type="vType_car_16.89170899500803" route="route_south_to_north" depart="656.09" />
	<vehicle id="veh297" type="vType_car_10.764854026757316" route="route_north_to_east" depart="658.64" />
	<vehicle id="veh298" type="vType_car_67.80279785875875" route="route_west_to_east" depart="659.55" />
	<vehicle id="veh301" type="vType_car_16.51471693243366" route="route_south_to_north" depart="667.90" />
	<vehicle id="veh305" type="vType_car_22.799032989715826" route="route_east_to_west" depart="687.54" />
	<vehicle id="veh307" type="vType_car_20.935376926433165" route="route_west_to_east" depart="694.95" />
</routes>