<?xml version='1.0' encoding='utf-8'?>
<routes><vType id="vType_car_11.672424684866575" accel="1.0" decel="5.0" sigma="0.0" length="4.5" maxSpeed="3.242340190240715" /><vType id="vType_car_8.692900699213498" accel="1.0" decel="5.0" sigma="0.0" length="4.5" maxSpeed="2.414694638670416" /><vType id="vType_car_31.00349194249564" accel="1.0" decel="5.0" sigma="0.0" length="4.5" maxSpeed="8.612081095137677" /><vType id="vType_car_6.618310592526096" accel="1.0" decel="5.0" sigma="0.0" length="4.5" maxSpeed="1.8384196090350267" /><vType id="vType_car_4.52023894216601" accel="1.0" decel="5.0" sigma="0.0" length="4.5" maxSpeed="1.2556219283794472" /><vType id="vType_car_28.13374943831675" accel="1.0" decel="5.0" sigma="0.0" length="4.5" maxSpeed="7.814930399532431" /><vType id="vType_car_4.328011194413322" accel="1.0" decel="5.0" sigma="0.0" length="4.5" maxSpeed="1.2022253317814784" /><vType id="vType_bus_43.424490127048294" accel="1.0" decel="5.0" sigma="0.0" length="13" maxSpeed="12.062358368624526" /><vType id="vType_car_3.462835829204482" accel="1.0" decel="5.0" sigma="0.0" length="4.5" maxSpeed="0.9618988414456895" /><vType id="vType_car_20.587802420727147" accel="1.0" decel="5.0" sigma="0.0" length="4.5" maxSpeed="5.71883400575754" /><vType id="vType_truck_30.475813390298864" accel="1.0" decel="5.0" sigma="0.0" length="8" maxSpeed="8.465503719527462" /><vType id="vType_car_33.59058559498235" accel="1.0" decel="5.0" sigma="0.0" length="4.5" maxSpeed="9.33071822082843" /><vType id="vType_car_3.77763908640489" accel="1.0" decel="5.0" sigma="0.0" length="4.5" maxSpeed="1.049344190668025" /><vType id="vType_car_28.50696194837256" accel="1.0" decel="5.0" sigma="0.0" length="4.5" maxSpeed="7.9186005412146" /><vType id="vType_car_31.771228236794318" accel="1.0" decel="5.0" sigma="0.0" length="4.5" maxSpeed="8.82534117688731" /><vType id="vType_car_18.063518108392472" accel="1.0" decel="5.0" sigma="0.0" length="4.5" maxSpeed="5.0176439189979085" /><vType id="vType_car_19.623179675005858" accel="1.0" decel="5.0" sigma="0.0" length="4.5" maxSpeed="5.4508832430571825" /><vType id="vType_car_4.07392450494645" accel="1.0" decel="5.0" sigma="0.0" length="4.5" maxSpeed="1.1316456958184582" /><vType id="vType_car_18.90800805708574" accel="1.0" decel="5.0" sigma="0.0" length="4.5" maxSpeed="5.252224460301595" /><vType id="vType_car_26.127206774685707" accel="1.0" decel="5.0" sigma="0.0" length="4.5" maxSpeed="7.2575574374126965" /><vType id="vType_car_27.051168092028632" accel="1.0" decel="5.0" sigma="0.0" length="4.5" maxSpeed="7.514213358896842" /><vType id="vType_car_25.889257232615762" accel="1.0" decel="5.0" sigma="0.0" length="4.5" maxSpeed="7.191460342393267" /><vType id="vType_car_20.77410807436281" accel="1.0" decel="5.0" sigma="0.0" length="4.5" maxSpeed="5.770585576211892" /><vType id="vType_car_3.892112998114129" accel="1.0" decel="5.0" sigma="0.0" length="4.5" maxSpeed="1.081142499476147" /><vType id="vType_car_24.73065466921226" accel="1.0" decel="5.0" sigma="0.0" length="4.5" maxSpeed="6.869626297003405" /><vType id="vType_car_75.26892556461921" accel="1.0" decel="5.0" sigma="0.0" length="4.5" maxSpeed="20.908034879060892" /><vType id="vType_car_30.776982200399353" accel="1.0" decel="5.0" sigma="0.0" length="4.5" maxSpeed="8.549161722333153" /><vType id="vType_car_20.376374301349482" accel="1.0" decel="5.0" sigma="0.0" length="4.5" maxSpeed="5.660103972597079" /><vType id="vType_car_21.611186048110167" accel="1.0" decel="5.0" sigma="0.0" length="4.5" maxSpeed="6.003107235586157" /><vType id="vType_car_13.722901320741842" accel="1.0" decel="5.0" sigma="0.0" length="4.5" maxSpeed="3.8119170335394004" /><vType id="vType_car_2.833229314803668" accel="1.0" decel="5.0" sigma="0.0" length="4.5" maxSpeed="0.7870081430010188" /><vType id="vType_car_22.11132295405301" accel="1.0" decel="5.0" sigma="0.0" length="4.5" maxSpeed="6.142034153903613" /><vType id="vType_car_22.287255817913348" accel="1.0" decel="5.0" sigma="0.0" length="4.5" maxSpeed="6.190904393864819" /><vType id="vType_car_2.1286696439265653" accel="1.0" decel="5.0" sigma="0.0" length="4.5" maxSpeed="0.5912971233129348" /><vType id="vType_car_26.971189065561898" accel="1.0" decel="5.0" sigma="0.0" length="4.5" maxSpeed="7.491996962656082" /><vType id="vType_car_4.641031308040405" accel="1.0" decel="5.0" sigma="0.0" length="4.5" maxSpeed="1.2891753633445568" /><vType id="vType_car_3.7070545479365924" accel="1.0" decel="5.0" sigma="0.0" length="4.5" maxSpeed="1.0297373744268312" /><vType id="vType_car_20.030645887298782" accel="1.0" decel="5.0" sigma="0.0" length="4.5" maxSpeed="5.564068302027439" /><vType id="vType_car_0.7555278172809782" accel="1.0" decel="5.0" sigma="0.0" length="4.5" maxSpeed="0.20986883813360505" /><vType id="vType_car_3.9622657736339546" accel="1.0" decel="5.0" sigma="0.0" length="4.5" maxSpeed="1.1006293815649875" /><vType id="vType_car_35.73217542860899" accel="1.0" decel="5.0" sigma="0.0" length="4.5" maxSpeed="9.925604285724718" /><vType id="vType_car_20.19365306408308" accel="1.0" decel="5.0" sigma="0.0" length="4.5" maxSpeed="5.6093480733564105" /><vType id="vType_car_20.12846325391799" accel="1.0" decel="5.0" sigma="0.0" length="4.5" maxSpeed="5.591239792754997" /><vType id="vType_car_35.811154657258825" accel="1.0" decel="5.0" sigma="0.0" length="4.5" maxSpeed="9.947542960349674" /><vType id="vType_car_3.7776390864048897" accel="1.0" decel="5.0" sigma="0.0" length="4.5" maxSpeed="1.049344190668025" /><vType id="vType_car_22.562732304177988" accel="1.0" decel="5.0" sigma="0.0" length="4.5" maxSpeed="6.267425640049441" /><vType id="vType_car_41.197798846470654" accel="1.0" decel="5.0" sigma="0.0" length="4.5" maxSpeed="11.443833012908515" /><vType id="vType_car_4.572142545053538" accel="1.0" decel="5.0" sigma="0.0" length="4.5" maxSpeed="1.270039595848205" /><vType id="vType_car_14.812490426993985" accel="1.0" decel="5.0" sigma="0.0" length="4.5" maxSpeed="4.114580674164996" /><vType id="vType_car_7.015004715638839" accel="1.0" decel="5.0" sigma="0.0" length="4.5" maxSpeed="1.9486124210107887" /><vType id="vType_car_18.58930049238006" accel="1.0" decel="5.0" sigma="0.0" length="4.5" maxSpeed="5.163694581216684" /><vType id="vType_car_7.235210209731625" accel="1.0" decel="5.0" sigma="0.0" length="4.5" maxSpeed="2.0097806138143404" /><vType id="vType_car_3.7776390864048905" accel="1.0" decel="5.0" sigma="0.0" length="4.5" maxSpeed="1.0493441906680252" /><vType id="vType_car_13.869803977201727" accel="1.0" decel="5.0" sigma="0.0" length="4.5" maxSpeed="3.8527233270004797" /><vType id="vType_car_20.108075302125012" accel="1.0" decel="5.0" sigma="0.0" length="4.5" maxSpeed="5.5855764728125035" /><vType id="vType_car_43.6526909822035" accel="1.0" decel="5.0" sigma="0.0" length="4.5" maxSpeed="12.125747495056528" /><vType id="vType_car_22.99404273280185" accel="1.0" decel="5.0" sigma="0.0" length="4.5" maxSpeed="6.387234092444959" /><vType id="vType_car_33.03852762875759" accel="1.0" decel="5.0" sigma="0.0" length="4.5" maxSpeed="9.177368785765998" /><vType id="vType_car_8.211096714955412" accel="1.0" decel="5.0" sigma="0.0" length="4.5" maxSpeed="2.2808601985987256" /><vType id="vType_car_4.299222200851428" accel="1.0" decel="5.0" sigma="0.0" length="4.5" maxSpeed="1.1942283891253966" /><vType id="vType_car_26.554228061472486" accel="1.0" decel="5.0" sigma="0.0" length="4.5" maxSpeed="7.376174461520135" /><vType id="vType_car_4.000583991117829" accel="1.0" decel="5.0" sigma="0.0" length="4.5" maxSpeed="1.1112733308660636" /><vType id="vType_car_24.27648326252635" accel="1.0" decel="5.0" sigma="0.0" length="4.5" maxSpeed="6.743467572923986" /><vType id="vType_car_3.7311201014138904" accel="1.0" decel="5.0" sigma="0.0" length="4.5" maxSpeed="1.0364222503927474" /><vType id="vType_car_8.484438242419134" accel="1.0" decel="5.0" sigma="0.0" length="4.5" maxSpeed="2.3567884006719817" /><vType id="vType_car_26.91982513689006" accel="1.0" decel="5.0" sigma="0.0" length="4.5" maxSpeed="7.477729204691683" /><vType id="vType_car_10.248443876158165" accel="1.0" decel="5.0" sigma="0.0" length="4.5" maxSpeed="2.84678996559949" /><vType id="vType_car_9.346095124965377" accel="1.0" decel="5.0" sigma="0.0" length="4.5" maxSpeed="2.5961375347126046" /><vType id="vType_car_22.88073815421709" accel="1.0" decel="5.0" sigma="0.0" length="4.5" maxSpeed="6.355760598393636" /><vType id="vType_car_33.33492874509557" accel="1.0" decel="5.0" sigma="0.0" length="4.5" maxSpeed="9.259702429193213" /><vType id="vType_car_9.749042501443927" accel="1.0" decel="5.0" sigma="0.0" length="4.5" maxSpeed="2.708067361512202" /><vType id="vType_car_13.034899932438588" accel="1.0" decel="5.0" sigma="0.0" length="4.5" maxSpeed="3.6208055367884966" /><vType id="vType_car_29.36521508861473" accel="1.0" decel="5.0" sigma="0.0" length="4.5" maxSpeed="8.15700419128187" /><vType id="vType_car_9.538269525573993" accel="1.0" decel="5.0" sigma="0.0" length="4.5" maxSpeed="2.6495193126594425" /><vType id="vType_car_3.7766110539701407" accel="1.0" decel="5.0" sigma="0.0" length="4.5" maxSpeed="1.0490586261028167" /><vType id="vType_car_34.20934612949522" accel="1.0" decel="5.0" sigma="0.0" length="4.5" maxSpeed="9.502596147082006" /><vType id="vType_car_42.13985260053379" accel="1.0" decel="5.0" sigma="0.0" length="4.5" maxSpeed="11.705514611259387" /><vType id="vType_car_14.022104277805923" accel="1.0" decel="5.0" sigma="0.0" length="4.5" maxSpeed="3.895028966057201" /><vType id="vType_car_4.722048858006112" accel="1.0" decel="5.0" sigma="0.0" length="4.5" maxSpeed="1.3116802383350312" /><vType id="vType_car_28.896777260137426" accel="1.0" decel="5.0" sigma="0.0" length="4.5" maxSpeed="8.026882572260396" /><vType id="vType_car_18.060917746624906" accel="1.0" decel="5.0" sigma="0.0" length="4.5" maxSpeed="5.016921596284696" /><vType id="vType_car_27.655573009631084" accel="1.0" decel="5.0" sigma="0.0" length="4.5" maxSpeed="7.682103613786412" /><vType id="vType_car_13.897388319700475" accel="1.0" decel="5.0" sigma="0.0" length="4.5" maxSpeed="3.860385644361243" /><vType id="vType_car_12.924339276271654" accel="1.0" decel="5.0" sigma="0.0" length="4.5" maxSpeed="3.590094243408793" /><vType id="vType_car_20.204938369462198" accel="1.0" decel="5.0" sigma="0.0" length="4.5" maxSpeed="5.612482880406166" /><vType id="vType_car_17.215379598208354" accel="1.0" decel="5.0" sigma="0.0" length="4.5" maxSpeed="4.782049888391209" /><vType id="vType_car_26.301370416198406" accel="1.0" decel="5.0" sigma="0.0" length="4.5" maxSpeed="7.305936226721779" /><vType id="vType_truck_29.695887603950016" accel="1.0" decel="5.0" sigma="0.0" length="8" maxSpeed="8.248857667763893" /><vType id="vType_car_29.351106507987282" accel="1.0" decel="5.0" sigma="0.0" length="4.5" maxSpeed="8.153085141107578" /><vType id="vType_car_4.802778293892278" accel="1.0" decel="5.0" sigma="0.0" length="4.5" maxSpeed="1.3341050816367437" /><vType id="vType_car_8.415726738067706" accel="1.0" decel="5.0" sigma="0.0" length="4.5" maxSpeed="2.3377018716854736" /><vType id="vType_car_19.536211601807324" accel="1.0" decel="5.0" sigma="0.0" length="4.5" maxSpeed="5.426725444946479" /><vType id="vType_car_16.763146099290214" accel="1.0" decel="5.0" sigma="0.0" length="4.5" maxSpeed="4.656429472025059" /><vType id="vType_car_14.556246560356968" accel="1.0" decel="5.0" sigma="0.0" length="4.5" maxSpeed="4.04340182232138" /><vType id="vType_car_13.80955404139492" accel="1.0" decel="5.0" sigma="0.0" length="4.5" maxSpeed="3.835987233720811" /><vType id="vType_car_12.166456957424295" accel="1.0" decel="5.0" sigma="0.0" length="4.5" maxSpeed="3.379571377062304" /><vType id="vType_car_5.313190309634819" accel="1.0" decel="5.0" sigma="0.0" length="4.5" maxSpeed="1.475886197120783" /><vType id="vType_car_28.297639574731107" accel="1.0" decel="5.0" sigma="0.0" length="4.5" maxSpeed="7.8604554374253075" /><vType id="vType_car_26.07447667785122" accel="1.0" decel="5.0" sigma="0.0" length="4.5" maxSpeed="7.242910188292005" /><vType id="vType_car_4.6317735655035355" accel="1.0" decel="5.0" sigma="0.0" length="4.5" maxSpeed="1.2866037681954265" /><vType id="vType_car_29.13566286869441" accel="1.0" decel="5.0" sigma="0.0" length="4.5" maxSpeed="8.093239685748447" /><vType id="vType_car_15.851400863212534" accel="1.0" decel="5.0" sigma="0.0" length="4.5" maxSpeed="4.403166906447926" /><vType id="vType_car_6.533379012848455" accel="1.0" decel="5.0" sigma="0.0" length="4.5" maxSpeed="1.8148275035690151" /><vType id="vType_car_21.384292918835374" accel="1.0" decel="5.0" sigma="0.0" length="4.5" maxSpeed="5.9400813663431595" /><vType id="vType_car_17.494276266071555" accel="1.0" decel="5.0" sigma="0.0" length="4.5" maxSpeed="4.859521185019877" /><vType id="vType_car_20.488117468082123" accel="1.0" decel="5.0" sigma="0.0" length="4.5" maxSpeed="5.691143741133923" /><vType id="vType_car_29.12625443482437" accel="1.0" decel="5.0" sigma="0.0" length="4.5" maxSpeed="8.090626231895659" /><vType id="vType_car_18.333326258909825" accel="1.0" decel="5.0" sigma="0.0" length="4.5" maxSpeed="5.0925906274749515" /><vType id="vType_car_4.04144575018543" accel="1.0" decel="5.0" sigma="0.0" length="4.5" maxSpeed="1.1226238194959526" /><vType id="vType_car_16.929879658386017" accel="1.0" decel="5.0" sigma="0.0" length="4.5" maxSpeed="4.702744349551671" /><vType id="vType_car_5.342388429744504" accel="1.0" decel="5.0" sigma="0.0" length="4.5" maxSpeed="1.48399678604014" /><vType id="vType_car_29.6870800609695" accel="1.0" decel="5.0" sigma="0.0" length="4.5" maxSpeed="8.246411128047082" /><vType id="vType_car_26.019731783113155" accel="1.0" decel="5.0" sigma="0.0" length="4.5" maxSpeed="7.227703273086988" /><vType id="vType_car_4.2925356885637855" accel="1.0" decel="5.0" sigma="0.0" length="4.5" maxSpeed="1.1923710246010515" /><vType id="vType_car_20.00500519058449" accel="1.0" decel="5.0" sigma="0.0" length="4.5" maxSpeed="5.5569458862734695" /><vType id="vType_car_28.904177805093052" accel="1.0" decel="5.0" sigma="0.0" length="4.5" maxSpeed="8.028938279192515" /><vType id="vType_car_21.65130588595322" accel="1.0" decel="5.0" sigma="0.0" length="4.5" maxSpeed="6.014251634987006" /><vType id="vType_car_19.92092472424622" accel="1.0" decel="5.0" sigma="0.0" length="4.5" maxSpeed="5.533590201179505" /><vType id="vType_car_21.376038354445033" accel="1.0" decel="5.0" sigma="0.0" length="4.5" maxSpeed="5.9377884317902865" /><vType id="vType_car_4.047470449719524" accel="1.0" decel="5.0" sigma="0.0" length="4.5" maxSpeed="1.1242973471443123" /><vType id="vType_car_4.674411390629496" accel="1.0" decel="5.0" sigma="0.0" length="4.5" maxSpeed="1.2984476085081933" /><vType id="vType_truck_3.3579014101376803" accel="1.0" decel="5.0" sigma="0.0" length="8" maxSpeed="0.9327503917049111" /><vType id="vType_car_21.61046419460842" accel="1.0" decel="5.0" sigma="0.0" length="4.5" maxSpeed="6.00290672072456" /><vType id="vType_car_35.337439055878846" accel="1.0" decel="5.0" sigma="0.0" length="4.5" maxSpeed="9.815955293299679" /><vType id="vType_car_3.687785678175142" accel="1.0" decel="5.0" sigma="0.0" length="4.5" maxSpeed="1.0243849106042062" /><vType id="vType_car_40.15714534084766" accel="1.0" decel="5.0" sigma="0.0" length="4.5" maxSpeed="11.154762594679907" /><vType id="vType_car_4.515724299980397" accel="1.0" decel="5.0" sigma="0.0" length="4.5" maxSpeed="1.2543678611056657" /><vType id="vType_car_4.458308087475099" accel="1.0" decel="5.0" sigma="0.0" length="4.5" maxSpeed="1.2384189131875274" /><vType id="vType_car_37.35165549388979" accel="1.0" decel="5.0" sigma="0.0" length="4.5" maxSpeed="10.37545985941383" /><vType id="vType_car_6.4968007472383285" accel="1.0" decel="5.0" sigma="0.0" length="4.5" maxSpeed="1.8046668742328689" /><vType id="vType_car_23.667953722752436" accel="1.0" decel="5.0" sigma="0.0" length="4.5" maxSpeed="6.574431589653455" /><vType id="vType_car_32.586391983873874" accel="1.0" decel="5.0" sigma="0.0" length="4.5" maxSpeed="9.051775551076076" /><vType id="vType_car_38.12747545639126" accel="1.0" decel="5.0" sigma="0.0" length="4.5" maxSpeed="10.590965404553128" /><vType id="vType_car_5.017001235223545" accel="1.0" decel="5.0" sigma="0.0" length="4.5" maxSpeed="1.3936114542287625" /><vType id="vType_car_41.5549509327984" accel="1.0" decel="5.0" sigma="0.0" length="4.5" maxSpeed="11.543041925777333" /><vType id="vType_car_36.17826621973209" accel="1.0" decel="5.0" sigma="0.0" length="4.5" maxSpeed="10.049518394370024" /><vType id="vType_truck_3.9819035837087076" accel="1.0" decel="5.0" sigma="0.0" length="8" maxSpeed="1.1060843288079742" /><vType id="vType_car_57.79901325891995" accel="1.0" decel="5.0" sigma="0.0" length="4.5" maxSpeed="16.055281460811095" /><vType id="vType_car_41.63813907903447" accel="1.0" decel="5.0" sigma="0.0" length="4.5" maxSpeed="11.56614974417624" /><vType id="vType_car_4.33036802677758" accel="1.0" decel="5.0" sigma="0.0" length="4.5" maxSpeed="1.2028800074382167" /><vType id="vType_car_51.55280486841445" accel="1.0" decel="5.0" sigma="0.0" length="4.5" maxSpeed="14.320223574559568" /><vType id="vType_car_7.557194283555031" accel="1.0" decel="5.0" sigma="0.0" length="4.5" maxSpeed="2.099220634320842" /><vType id="vType_car_4.368812533472264" accel="1.0" decel="5.0" sigma="0.0" length="4.5" maxSpeed="1.2135590370756288" /><vType id="vType_car_4.1688264222397935" accel="1.0" decel="5.0" sigma="0.0" length="4.5" maxSpeed="1.1580073395110537" /><route id="route_north_to_east" edges="north_to_center center_to_east" /><route id="route_north_to_south" edges="north_to_center center_to_south" /><route id="route_north_to_west" edges="north_to_center center_to_west" /><route id="route_east_to_west" edges="east_to_center center_to_west" /><route id="route_east_to_south" edges="east_to_center center_to_south" /><route id="route_east_to_north" edges="east_to_center center_to_north" /><route id="route_south_to_west" edges="south_to_center center_to_west" /><route id="route_south_to_north" edges="south_to_center center_to_north" /><route id="route_south_to_east" edges="south_to_center center_to_east" /><route id="route_west_to_south" edges="west_to_center center_to_south" /><route id="route_west_to_north" edges="west_to_center center_to_north" /><route id="route_west_to_east" edges="west_to_center center_to_east" /><vehicle id="veh4" type="vType_car_31.00349194249564" route="route_north_to_west" depart="0.03" /><vehicle id="veh5" type="vType_car_6.618310592526096" route="route_east_to_north" depart="0.03" /><vehicle id="veh7" type="vType_car_28.13374943831675" route="route_north_to_south" depart="0.03" /><vehicle id="veh14" type="vType_car_33.59058559498235" route="route_south_to_north" depart="1.00" /><vehicle id="veh16" type="vType_car_28.50696194837256" route="route_north_to_south" depart="2.47" /><vehicle id="veh17" type="vType_car_31.771228236794318" route="route_south_to_north" depart="3.84" /><vehicle id="veh22" type="vType_car_19.623179675005858" route="route_north_to_west" depart="4.27" /><vehicle id="veh24" type="vType_car_18.90800805708574" route="route_south_to_north" depart="5.47" /><vehicle id="veh26" type="vType_car_26.127206774685707" route="route_south_to_north" depart="6.27" /><vehicle id="veh30" type="vType_car_27.051168092028632" route="route_north_to_south" depart="6.87" /><vehicle id="veh31" type="vType_car_25.889257232615762" route="route_north_to_south" depart="6.97" /><vehicle id="veh35" type="vType_car_24.73065466921226" route="route_south_to_north" depart="9.37" /><vehicle id="veh41" type="vType_car_30.776982200399353" route="route_south_to_north" depart="10.44" /><vehicle id="veh45" type="vType_car_21.611186048110167" route="route_south_to_north" depart="12.31" /><vehicle id="veh46" type="vType_car_13.722901320741842" route="route_north_to_west" depart="12.77" /><vehicle id="veh50" type="vType_car_22.11132295405301" route="route_south_to_north" depart="13.31" /><vehicle id="veh54" type="vType_car_26.971189065561898" route="route_south_to_north" depart="14.94" /><vehicle id="veh64" type="vType_car_35.73217542860899" route="route_south_to_west" depart="18.78" /><vehicle id="veh69" type="vType_car_20.12846325391799" route="route_south_to_north" depart="21.11" /><vehicle id="veh79" type="vType_car_41.197798846470654" route="route_south_to_west" depart="23.48" /><vehicle id="veh81" type="vType_car_14.812490426993985" route="route_west_to_south" depart="25.05" /><vehicle id="veh86" type="vType_car_7.015004715638839" route="route_east_to_north" depart="26.72" /><vehicle id="veh87" type="vType_car_18.58930049238006" route="route_west_to_north" depart="26.92" /><vehicle id="veh88" type="vType_car_7.235210209731625" route="route_east_to_north" depart="28.12" /><vehicle id="veh90" type="vType_car_13.869803977201727" route="route_north_to_south" depart="29.12" /><vehicle id="veh91" type="vType_car_20.108075302125012" route="route_east_to_west" depart="29.52" /><vehicle id="veh94" type="vType_car_43.6526909822035" route="route_west_to_east" depart="32.19" /><vehicle id="veh96" type="vType_car_22.99404273280185" route="route_west_to_north" depart="32.39" /><vehicle id="veh97" type="vType_car_33.03852762875759" route="route_east_to_west" depart="33.85" /><vehicle id="veh98" type="vType_car_8.211096714955412" route="route_east_to_north" depart="33.99" /><vehicle id="veh104" type="vType_car_26.554228061472486" route="route_west_to_north" depart="35.62" /><vehicle id="veh107" type="vType_car_24.27648326252635" route="route_west_to_north" depart="37.59" /><vehicle id="veh109" type="vType_car_8.484438242419134" route="route_east_to_north" depart="44.89" /><vehicle id="veh110" type="vType_car_26.91982513689006" route="route_east_to_west" depart="47.36" /><vehicle id="veh111" type="vType_car_10.248443876158165" route="route_east_to_north" depart="47.86" /><vehicle id="veh113" type="vType_car_9.346095124965377" route="route_east_to_north" depart="50.13" /><vehicle id="veh115" type="vType_car_33.33492874509557" route="route_east_to_west" depart="52.97" /><vehicle id="veh116" type="vType_car_9.749042501443927" route="route_east_to_north" depart="53.07" /><vehicle id="veh119" type="vType_car_13.034899932438588" route="route_south_to_north" depart="53.93" /><vehicle id="veh120" type="vType_car_29.36521508861473" route="route_east_to_west" depart="54.03" /><vehicle id="veh121" type="vType_car_9.538269525573993" route="route_east_to_north" depart="55.17" /><vehicle id="veh123" type="vType_car_34.20934612949522" route="route_east_to_west" depart="57.07" /><vehicle id="veh125" type="vType_car_42.13985260053379" route="route_east_to_west" depart="59.34" /><vehicle id="veh126" type="vType_car_14.022104277805923" route="route_north_to_east" depart="63.97" /><vehicle id="veh128" type="vType_car_28.896777260137426" route="route_north_to_south" depart="66.57" /><vehicle id="veh129" type="vType_car_18.060917746624906" route="route_north_to_east" depart="67.51" /><vehicle id="veh130" type="vType_car_27.655573009631084" route="route_north_to_south" depart="69.51" /><vehicle id="veh131" type="vType_car_13.897388319700475" route="route_north_to_east" depart="70.08" /><vehicle id="veh132" type="vType_car_12.924339276271654" route="route_south_to_west" depart="72.08" /><vehicle id="veh133" type="vType_car_20.204938369462198" route="route_north_to_west" depart="72.38" /><vehicle id="veh134" type="vType_car_17.215379598208354" route="route_north_to_east" depart="72.85" /><vehicle id="veh136" type="vType_car_26.301370416198406" route="route_north_to_south" depart="75.81" /><vehicle id="veh137" type="vType_truck_29.695887603950016" route="route_north_to_east" depart="78.32" /><vehicle id="veh139" type="vType_car_29.351106507987282" route="route_north_to_south" depart="78.48" /><vehicle id="veh143" type="vType_car_19.536211601807324" route="route_north_to_west" depart="80.62" /><vehicle id="veh147" type="vType_car_16.763146099290214" route="route_north_to_east" depart="82.75" /><vehicle id="veh148" type="vType_car_14.556246560356968" route="route_east_to_north" depart="82.85" /><vehicle id="veh149" type="vType_car_13.80955404139492" route="route_east_to_north" depart="83.19" /><vehicle id="veh151" type="vType_car_12.166456957424295" route="route_east_to_north" depart="83.59" /><vehicle id="veh153" type="vType_car_28.297639574731107" route="route_north_to_south" depart="86.19" /><vehicle id="veh154" type="vType_car_26.07447667785122" route="route_north_to_south" depart="86.69" /><vehicle id="veh157" type="vType_car_29.13566286869441" route="route_north_to_south" depart="89.22" /><vehicle id="veh158" type="vType_car_15.851400863212534" route="route_south_to_north" depart="89.26" /><vehicle id="veh159" type="vType_car_6.533379012848455" route="route_east_to_north" depart="89.99" /><vehicle id="veh160" type="vType_car_21.384292918835374" route="route_south_to_north" depart="90.02" /><vehicle id="veh165" type="vType_car_17.494276266071555" route="route_south_to_north" depart="91.72" /><vehicle id="veh168" type="vType_car_20.488117468082123" route="route_south_to_north" depart="92.46" /><vehicle id="veh170" type="vType_car_29.12625443482437" route="route_north_to_south" depart="93.16" /><vehicle id="veh171" type="vType_car_18.333326258909825" route="route_south_to_north" depart="93.73" /><vehicle id="veh174" type="vType_car_16.929879658386017" route="route_south_to_north" depart="95.23" /><vehicle id="veh176" type="vType_car_29.6870800609695" route="route_north_to_south" depart="96.13" /><vehicle id="veh177" type="vType_car_26.019731783113155" route="route_south_to_north" depart="96.19" /><vehicle id="veh179" type="vType_car_20.00500519058449" route="route_south_to_north" depart="97.93" /><vehicle id="veh181" type="vType_car_28.904177805093052" route="route_south_to_north" depart="98.56" /><vehicle id="veh182" type="vType_car_21.65130588595322" route="route_north_to_west" depart="98.76" /><vehicle id="veh183" type="vType_car_19.92092472424622" route="route_north_to_west" depart="98.86" /><vehicle id="veh188" type="vType_car_21.61046419460842" route="route_south_to_north" depart="101.80" /><vehicle id="veh189" type="vType_car_35.337439055878846" route="route_south_to_north" depart="101.86" /><vehicle id="veh194" type="vType_car_40.15714534084766" route="route_south_to_north" depart="105.47" /><vehicle id="veh197" type="vType_car_37.35165549388979" route="route_south_to_west" depart="107.53" /><vehicle id="veh199" type="vType_car_23.667953722752436" route="route_south_to_north" depart="108.40" /><vehicle id="veh202" type="vType_car_32.586391983873874" route="route_south_to_north" depart="109.80" /><vehicle id="veh204" type="vType_car_38.12747545639126" route="route_south_to_west" depart="110.77" /><vehicle id="veh207" type="vType_car_41.5549509327984" route="route_south_to_west" depart="111.94" /><vehicle id="veh210" type="vType_car_36.17826621973209" route="route_south_to_west" depart="114.24" /><vehicle id="veh213" type="vType_car_57.79901325891995" route="route_south_to_north" depart="116.31" /><vehicle id="veh214" type="vType_car_41.63813907903447" route="route_south_to_west" depart="116.37" /><vehicle id="veh217" type="vType_car_51.55280486841445" route="route_south_to_west" depart="118.04" /></routes>