<?xml version='1.0' encoding='utf-8'?>
<routes><vType id="vType_car_26.826442447528127" accel="1.0" decel="5.0" sigma="0.0" length="4.5" maxSpeed="7.451789568757813" /><vType id="vType_car_12.164615369930793" accel="1.0" decel="5.0" sigma="0.0" length="4.5" maxSpeed="3.379059824980776" /><vType id="vType_car_18.026352262647176" accel="1.0" decel="5.0" sigma="0.0" length="4.5" maxSpeed="5.007320072957548" /><vType id="vType_car_13.783718205811477" accel="1.0" decel="5.0" sigma="0.0" length="4.5" maxSpeed="3.8288106127254102" /><vType id="vType_car_18.475286197229437" accel="1.0" decel="5.0" sigma="0.0" length="4.5" maxSpeed="5.132023943674843" /><vType id="vType_car_23.811083868470668" accel="1.0" decel="5.0" sigma="0.0" length="4.5" maxSpeed="6.614189963464074" /><vType id="vType_car_17.42344021693637" accel="1.0" decel="5.0" sigma="0.0" length="4.5" maxSpeed="4.839844504704547" /><vType id="vType_car_16.59228310737606" accel="1.0" decel="5.0" sigma="0.0" length="4.5" maxSpeed="4.608967529826683" /><vType id="vType_car_17.295449809631283" accel="1.0" decel="5.0" sigma="0.0" length="4.5" maxSpeed="4.804291613786467" /><vType id="vType_car_29.48677046594021" accel="1.0" decel="5.0" sigma="0.0" length="4.5" maxSpeed="8.19076957387228" /><vType id="vType_car_14.345484097098447" accel="1.0" decel="5.0" sigma="0.0" length="4.5" maxSpeed="3.9848566936384575" /><vType id="vType_car_28.11823591747099" accel="1.0" decel="5.0" sigma="0.0" length="4.5" maxSpeed="7.810621088186386" /><vType id="vType_car_15.550895047058003" accel="1.0" decel="5.0" sigma="0.0" length="4.5" maxSpeed="4.319693068627223" /><vType id="vType_car_30.190244268884598" accel="1.0" decel="5.0" sigma="0.0" length="4.5" maxSpeed="8.386178963579054" /><vType id="vType_car_8.232972761841113" accel="1.0" decel="5.0" sigma="0.0" length="4.5" maxSpeed="2.286936878289198" /><vType id="vType_car_18.178554091770543" accel="1.0" decel="5.0" sigma="0.0" length="4.5" maxSpeed="5.0495983588251505" /><vType id="vType_car_7.7184211587380505" accel="1.0" decel="5.0" sigma="0.0" length="4.5" maxSpeed="2.144005877427236" /><vType id="vType_car_12.210541821325913" accel="1.0" decel="5.0" sigma="0.0" length="4.5" maxSpeed="3.3918171725905313" /><vType id="vType_car_28.89197556603498" accel="1.0" decel="5.0" sigma="0.0" length="4.5" maxSpeed="8.02554876834305" /><vType id="vType_car_28.48722607746212" accel="1.0" decel="5.0" sigma="0.0" length="4.5" maxSpeed="7.913118354850589" /><vType id="vType_car_3.279781121946339" accel="1.0" decel="5.0" sigma="0.0" length="4.5" maxSpeed="0.9110503116517609" /><vType id="vType_car_12.925045543708272" accel="1.0" decel="5.0" sigma="0.0" length="4.5" maxSpeed="3.590290428807853" /><vType id="vType_car_8.629949393060475" accel="1.0" decel="5.0" sigma="0.0" length="4.5" maxSpeed="2.3972081647390207" /><vType id="vType_car_8.427896435859877" accel="1.0" decel="5.0" sigma="0.0" length="4.5" maxSpeed="2.3410823432944103" /><vType id="vType_car_12.896569896703546" accel="1.0" decel="5.0" sigma="0.0" length="4.5" maxSpeed="3.5823805268620963" /><vType id="vType_car_8.382934006807037" accel="1.0" decel="5.0" sigma="0.0" length="4.5" maxSpeed="2.328592779668621" /><vType id="vType_car_34.69868714906404" accel="1.0" decel="5.0" sigma="0.0" length="4.5" maxSpeed="9.638524208073346" /><vType id="vType_car_25.471022549588405" accel="1.0" decel="5.0" sigma="0.0" length="4.5" maxSpeed="7.075284041552335" /><vType id="vType_car_2.5776202951049396" accel="1.0" decel="5.0" sigma="0.0" length="4.5" maxSpeed="0.7160056375291499" /><vType id="vType_car_19.796311783255018" accel="1.0" decel="5.0" sigma="0.0" length="4.5" maxSpeed="5.498975495348616" /><vType id="vType_car_5.3445928487928835" accel="1.0" decel="5.0" sigma="0.0" length="4.5" maxSpeed="1.4846091246646897" /><vType id="vType_car_15.060207799277881" accel="1.0" decel="5.0" sigma="0.0" length="4.5" maxSpeed="4.183391055354967" /><vType id="vType_car_2.9877182304900356" accel="1.0" decel="5.0" sigma="0.0" length="4.5" maxSpeed="0.8299217306916765" /><vType id="vType_car_23.00390964408209" accel="1.0" decel="5.0" sigma="0.0" length="4.5" maxSpeed="6.389974901133914" /><vType id="vType_car_24.62044681506761" accel="1.0" decel="5.0" sigma="0.0" length="4.5" maxSpeed="6.839013004185447" /><vType id="vType_car_12.9203428863005" accel="1.0" decel="5.0" sigma="0.0" length="4.5" maxSpeed="3.588984135083472" /><vType id="vType_car_25.811303826231008" accel="1.0" decel="5.0" sigma="0.0" length="4.5" maxSpeed="7.1698066183975016" /><vType id="vType_car_20.440914611510138" accel="1.0" decel="5.0" sigma="0.0" length="4.5" maxSpeed="5.678031836530594" /><vType id="vType_car_3.7791978460625764" accel="1.0" decel="5.0" sigma="0.0" length="4.5" maxSpeed="1.0497771794618267" /><vType id="vType_car_29.749749959518326" accel="1.0" decel="5.0" sigma="0.0" length="4.5" maxSpeed="8.263819433199535" /><vType id="vType_car_12.77634293940026" accel="1.0" decel="5.0" sigma="0.0" length="4.5" maxSpeed="3.5489841498334056" /><vType id="vType_car_33.07180651595179" accel="1.0" decel="5.0" sigma="0.0" length="4.5" maxSpeed="9.18661292109772" /><vType id="vType_car_20.42767747297768" accel="1.0" decel="5.0" sigma="0.0" length="4.5" maxSpeed="5.674354853604911" /><vType id="vType_car_39.35228952825541" accel="1.0" decel="5.0" sigma="0.0" length="4.5" maxSpeed="10.931191535626503" /><vType id="vType_car_4.708171119283404" accel="1.0" decel="5.0" sigma="0.0" length="4.5" maxSpeed="1.3078253109120566" /><vType id="vType_car_42.80276435507661" accel="1.0" decel="5.0" sigma="0.0" length="4.5" maxSpeed="11.889656765299058" /><vType id="vType_car_4.823315456708954" accel="1.0" decel="5.0" sigma="0.0" length="4.5" maxSpeed="1.3398098490858206" /><vType id="vType_car_18.733144993048473" accel="1.0" decel="5.0" sigma="0.0" length="4.5" maxSpeed="5.203651386957909" /><vType id="vType_car_8.90038880030631" accel="1.0" decel="5.0" sigma="0.0" length="4.5" maxSpeed="2.472330222307308" /><vType id="vType_car_15.556867362504482" accel="1.0" decel="5.0" sigma="0.0" length="4.5" maxSpeed="4.3213520451401335" /><vType id="vType_car_36.96201855480768" accel="1.0" decel="5.0" sigma="0.0" length="4.5" maxSpeed="10.267227376335466" /><vType id="vType_car_5.107078155271145" accel="1.0" decel="5.0" sigma="0.0" length="4.5" maxSpeed="1.4186328209086514" /><vType id="vType_car_29.760719245585207" accel="1.0" decel="5.0" sigma="0.0" length="4.5" maxSpeed="8.266866457107001" /><vType id="vType_car_16.13948732623739" accel="1.0" decel="5.0" sigma="0.0" length="4.5" maxSpeed="4.48319092395483" /><vType id="vType_car_3.2094857656616607" accel="1.0" decel="5.0" sigma="0.0" length="4.5" maxSpeed="0.8915238237949057" /><vType id="vType_car_7.256154706103089" accel="1.0" decel="5.0" sigma="0.0" length="4.5" maxSpeed="2.0155985294730803" /><vType id="vType_car_20.500726265540823" accel="1.0" decel="5.0" sigma="0.0" length="4.5" maxSpeed="5.694646184872451" /><vType id="vType_car_4.556185915627176" accel="1.0" decel="5.0" sigma="0.0" length="4.5" maxSpeed="1.2656071987853266" /><vType id="vType_car_28.730872206794082" accel="1.0" decel="5.0" sigma="0.0" length="4.5" maxSpeed="7.980797835220578" /><vType id="vType_car_4.346719607729083" accel="1.0" decel="5.0" sigma="0.0" length="4.5" maxSpeed="1.2074221132580787" /><vType id="vType_car_35.091679305780175" accel="1.0" decel="5.0" sigma="0.0" length="4.5" maxSpeed="9.747688696050048" /><vType id="vType_car_38.173909924379984" accel="1.0" decel="5.0" sigma="0.0" length="4.5" maxSpeed="10.603863867883328" /><route id="route_north_to_east" edges="north_to_center center_to_east" /><route id="route_north_to_south" edges="north_to_center center_to_south" /><route id="route_north_to_west" edges="north_to_center center_to_west" /><route id="route_east_to_west" edges="east_to_center center_to_west" /><route id="route_east_to_south" edges="east_to_center center_to_south" /><route id="route_east_to_north" edges="east_to_center center_to_north" /><route id="route_south_to_west" edges="south_to_center center_to_west" /><route id="route_south_to_north" edges="south_to_center center_to_north" /><route id="route_south_to_east" edges="south_to_center center_to_east" /><route id="route_west_to_south" edges="west_to_center center_to_south" /><route id="route_west_to_north" edges="west_to_center center_to_north" /><route id="route_west_to_east" edges="west_to_center center_to_east" /><vehicle id="veh1" type="vType_car_26.826442447528127" route="route_north_to_south" depart="0.03" /><vehicle id="veh2" type="vType_car_12.164615369930793" route="route_north_to_east" depart="0.03" /><vehicle id="veh5" type="vType_car_18.026352262647176" route="route_south_to_north" depart="1.13" /><vehicle id="veh7" type="vType_car_18.475286197229437" route="route_north_to_south" depart="5.90" /><vehicle id="veh8" type="vType_car_23.811083868470668" route="route_north_to_south" depart="6.03" /><vehicle id="veh10" type="vType_car_17.42344021693637" route="route_south_to_north" depart="6.97" /><vehicle id="veh11" type="vType_car_16.59228310737606" route="route_south_to_north" depart="7.33" /><vehicle id="veh14" type="vType_car_17.295449809631283" route="route_south_to_north" depart="9.94" /><vehicle id="veh16" type="vType_car_29.48677046594021" route="route_north_to_south" depart="10.57" /><vehicle id="veh20" type="vType_car_14.345484097098447" route="route_north_to_east" depart="11.50" /><vehicle id="veh21" type="vType_car_28.11823591747099" route="route_north_to_south" depart="11.74" /><vehicle id="veh22" type="vType_car_15.550895047058003" route="route_north_to_east" depart="12.87" /><vehicle id="veh24" type="vType_car_30.190244268884598" route="route_north_to_south" depart="15.07" /><vehicle id="veh25" type="vType_car_8.232972761841113" route="route_east_to_north" depart="16.60" /><vehicle id="veh27" type="vType_car_18.178554091770543" route="route_north_to_east" depart="18.30" /><vehicle id="veh29" type="vType_car_7.7184211587380505" route="route_east_to_north" depart="18.47" /><vehicle id="veh32" type="vType_car_12.210541821325913" route="route_west_to_north" depart="19.04" /><vehicle id="veh33" type="vType_car_28.89197556603498" route="route_north_to_south" depart="19.07" /><vehicle id="veh34" type="vType_car_28.48722607746212" route="route_north_to_south" depart="20.50" /><vehicle id="veh36" type="vType_car_12.925045543708272" route="route_west_to_south" depart="21.17" /><vehicle id="veh37" type="vType_car_8.629949393060475" route="route_east_to_north" depart="22.80" /><vehicle id="veh40" type="vType_car_12.896569896703546" route="route_west_to_south" depart="25.91" /><vehicle id="veh42" type="vType_car_8.382934006807037" route="route_east_to_north" depart="33.14" /><vehicle id="veh44" type="vType_car_34.69868714906404" route="route_south_to_west" depart="33.91" /><vehicle id="veh45" type="vType_car_25.471022549588405" route="route_south_to_north" depart="34.27" /><vehicle id="veh47" type="vType_car_19.796311783255018" route="route_north_to_south" depart="43.94" /><vehicle id="veh49" type="vType_car_15.060207799277881" route="route_north_to_east" depart="46.71" /><vehicle id="veh51" type="vType_car_23.00390964408209" route="route_north_to_south" depart="49.44" /><vehicle id="veh52" type="vType_car_24.62044681506761" route="route_north_to_south" depart="50.68" /><vehicle id="veh53" type="vType_car_12.9203428863005" route="route_north_to_east" depart="52.34" /><vehicle id="veh54" type="vType_car_25.811303826231008" route="route_north_to_south" depart="54.48" /><vehicle id="veh60" type="vType_car_29.749749959518326" route="route_north_to_south" depart="59.18" /><vehicle id="veh62" type="vType_car_12.77634293940026" route="route_north_to_east" depart="59.88" /><vehicle id="veh64" type="vType_car_33.07180651595179" route="route_north_to_south" depart="63.11" /><vehicle id="veh69" type="vType_car_20.42767747297768" route="route_south_to_north" depart="65.71" /><vehicle id="veh70" type="vType_car_39.35228952825541" route="route_south_to_west" depart="70.72" /><vehicle id="veh73" type="vType_car_42.80276435507661" route="route_north_to_south" depart="76.18" /><vehicle id="veh75" type="vType_car_18.733144993048473" route="route_north_to_south" depart="82.18" /><vehicle id="veh76" type="vType_car_8.90038880030631" route="route_east_to_north" depart="85.42" /><vehicle id="veh77" type="vType_car_15.556867362504482" route="route_west_to_north" depart="93.85" /><vehicle id="veh79" type="vType_car_36.96201855480768" route="route_south_to_north" depart="97.65" /><vehicle id="veh83" type="vType_car_16.13948732623739" route="route_north_to_east" depart="100.85" /><vehicle id="veh88" type="vType_car_20.500726265540823" route="route_west_to_north" depart="109.69" /><vehicle id="veh92" type="vType_car_28.730872206794082" route="route_west_to_north" depart="113.89" /><vehicle id="veh98" type="vType_car_38.173909924379984" route="route_west_to_south" depart="118.36" /></routes>