<?xml version='1.0' encoding='utf-8'?>
<routes><vType id="vType_car_6.353886951004829" accel="1.0" decel="5.0" sigma="0.0" length="4.5" maxSpeed="1.7649685975013414" /><vType id="vType_car_4.294208060478146" accel="1.0" decel="5.0" sigma="0.0" length="4.5" maxSpeed="1.1928355723550406" /><vType id="vType_car_17.203305359490418" accel="1.0" decel="5.0" sigma="0.0" length="4.5" maxSpeed="4.778695933191782" /><vType id="vType_car_16.811711205614397" accel="1.0" decel="5.0" sigma="0.0" length="4.5" maxSpeed="4.669919779337333" /><vType id="vType_car_43.42251081228538" accel="1.0" decel="5.0" sigma="0.0" length="4.5" maxSpeed="12.061808558968162" /><vType id="vType_car_56.35121551788993" accel="1.0" decel="5.0" sigma="0.0" length="4.5" maxSpeed="15.653115421636093" /><vType id="vType_car_9.969795795297305" accel="1.0" decel="5.0" sigma="0.0" length="4.5" maxSpeed="2.769387720915918" /><vType id="vType_car_33.9441889785949" accel="1.0" decel="5.0" sigma="0.0" length="4.5" maxSpeed="9.428941382943028" /><vType id="vType_car_10.701792681404111" accel="1.0" decel="5.0" sigma="0.0" length="4.5" maxSpeed="2.97272018927892" /><vType id="vType_car_11.332744529586453" accel="1.0" decel="5.0" sigma="0.0" length="4.5" maxSpeed="3.1479845915517926" /><vType id="vType_car_14.608543556491075" accel="1.0" decel="5.0" sigma="0.0" length="4.5" maxSpeed="4.057928765691965" /><vType id="vType_car_8.13547836022243" accel="1.0" decel="5.0" sigma="0.0" length="4.5" maxSpeed="2.2598551000617864" /><route id="route_north_to_east" edges="north_to_center center_to_east" /><route id="route_north_to_south" edges="north_to_center center_to_south" /><route id="route_north_to_west" edges="north_to_center center_to_west" /><route id="route_east_to_west" edges="east_to_center center_to_west" /><route id="route_east_to_south" edges="east_to_center center_to_south" /><route id="route_east_to_north" edges="east_to_center center_to_north" /><route id="route_south_to_west" edges="south_to_center center_to_west" /><route id="route_south_to_north" edges="south_to_center center_to_north" /><route id="route_south_to_east" edges="south_to_center center_to_east" /><route id="route_west_to_south" edges="west_to_center center_to_south" /><route id="route_west_to_north" edges="west_to_center center_to_north" /><route id="route_west_to_east" edges="west_to_center center_to_east" /><vehicle id="veh148" type="vType_car_6.353886951004829" route="route_east_to_south" depart="1.36" /><vehicle id="veh158" type="vType_car_16.811711205614397" route="route_west_to_east" depart="17.69" /><vehicle id="veh165" type="vType_car_43.42251081228538" route="route_west_to_east" depart="32.49" /><vehicle id="veh175" type="vType_car_14.608543556491075" route="route_south_to_east" depart="46.15" /></routes>