<?xml version='1.0' encoding='utf-8'?>
<routes><vType id="vType_car_17.93364371589037" accel="1.0" decel="5.0" sigma="0.0" length="4.5" maxSpeed="4.981567698858436" /><vType id="vType_car_20.770687390898228" accel="1.0" decel="5.0" sigma="0.0" length="4.5" maxSpeed="5.769635386360619" /><vType id="vType_car_18.5076530046208" accel="1.0" decel="5.0" sigma="0.0" length="4.5" maxSpeed="5.141014723505777" /><vType id="vType_car_6.03034941228518" accel="1.0" decel="5.0" sigma="0.0" length="4.5" maxSpeed="1.6750970589681056" /><vType id="vType_car_27.931091416479497" accel="1.0" decel="5.0" sigma="0.0" length="4.5" maxSpeed="7.7586365045776375" /><vType id="vType_car_45.52617541480418" accel="1.0" decel="5.0" sigma="0.0" length="4.5" maxSpeed="12.646159837445605" /><vType id="vType_car_3.282617183994882" accel="1.0" decel="5.0" sigma="0.0" length="4.5" maxSpeed="0.911838106665245" /><vType id="vType_car_27.658053898583074" accel="1.0" decel="5.0" sigma="0.0" length="4.5" maxSpeed="7.682792749606409" /><vType id="vType_car_18.830203677917737" accel="1.0" decel="5.0" sigma="0.0" length="4.5" maxSpeed="5.230612132754927" /><vType id="vType_car_3.537578329927145" accel="1.0" decel="5.0" sigma="0.0" length="4.5" maxSpeed="0.9826606472019848" /><vType id="vType_car_5.351342188741056" accel="1.0" decel="5.0" sigma="0.0" length="4.5" maxSpeed="1.4864839413169602" /><vType id="vType_car_3.884962875851603" accel="1.0" decel="5.0" sigma="0.0" length="4.5" maxSpeed="1.079156354403223" /><vType id="vType_car_2.6869617690241956" accel="1.0" decel="5.0" sigma="0.0" length="4.5" maxSpeed="0.7463782691733877" /><vType id="vType_car_13.08817137472496" accel="1.0" decel="5.0" sigma="0.0" length="4.5" maxSpeed="3.635603159645822" /><vType id="vType_car_2.7432080977236315" accel="1.0" decel="5.0" sigma="0.0" length="4.5" maxSpeed="0.7620022493676754" /><vType id="vType_car_53.8734728094426" accel="1.0" decel="5.0" sigma="0.0" length="4.5" maxSpeed="14.9648535581785" /><vType id="vType_car_3.17877568279257" accel="1.0" decel="5.0" sigma="0.0" length="4.5" maxSpeed="0.8829932452201583" /><vType id="vType_car_22.900901623609034" accel="1.0" decel="5.0" sigma="0.0" length="4.5" maxSpeed="6.36136156211362" /><vType id="vType_car_5.444793950606491" accel="1.0" decel="5.0" sigma="0.0" length="4.5" maxSpeed="1.5124427640573586" /><vType id="vType_car_6.21995768787728" accel="1.0" decel="5.0" sigma="0.0" length="4.5" maxSpeed="1.7277660244103556" /><vType id="vType_car_3.65725363418714" accel="1.0" decel="5.0" sigma="0.0" length="4.5" maxSpeed="1.0159037872742056" /><vType id="vType_car_26.708716769014742" accel="1.0" decel="5.0" sigma="0.0" length="4.5" maxSpeed="7.419087991392984" /><vType id="vType_truck_14.632081600359392" accel="1.0" decel="5.0" sigma="0.0" length="8" maxSpeed="4.064467111210942" /><vType id="vType_car_3.7945107449581617" accel="1.0" decel="5.0" sigma="0.0" length="4.5" maxSpeed="1.0540307624883782" /><vType id="vType_truck_14.760996470332255" accel="1.0" decel="5.0" sigma="0.0" length="8" maxSpeed="4.100276797314515" /><vType id="vType_car_4.007482947075591" accel="1.0" decel="5.0" sigma="0.0" length="4.5" maxSpeed="1.1131897075209973" /><vType id="vType_car_3.374588911448285" accel="1.0" decel="5.0" sigma="0.0" length="4.5" maxSpeed="0.9373858087356347" /><vType id="vType_car_7.265858706625973" accel="1.0" decel="5.0" sigma="0.0" length="4.5" maxSpeed="2.0182940851738813" /><vType id="vType_car_2.654192098096851" accel="1.0" decel="5.0" sigma="0.0" length="4.5" maxSpeed="0.7372755828046809" /><vType id="vType_car_29.065834412948526" accel="1.0" decel="5.0" sigma="0.0" length="4.5" maxSpeed="8.073842892485702" /><vType id="vType_car_34.92680163525178" accel="1.0" decel="5.0" sigma="0.0" length="4.5" maxSpeed="9.701889343125494" /><vType id="vType_car_18.45543495990173" accel="1.0" decel="5.0" sigma="0.0" length="4.5" maxSpeed="5.126509711083814" /><vType id="vType_car_12.596822163664376" accel="1.0" decel="5.0" sigma="0.0" length="4.5" maxSpeed="3.499117267684549" /><vType id="vType_car_13.118754553027864" accel="1.0" decel="5.0" sigma="0.0" length="4.5" maxSpeed="3.6440984869521844" /><vType id="vType_car_6.358107354768886" accel="1.0" decel="5.0" sigma="0.0" length="4.5" maxSpeed="1.766140931880246" /><vType id="vType_truck_10.704080659486815" accel="1.0" decel="5.0" sigma="0.0" length="8" maxSpeed="2.973355738746337" /><vType id="vType_bus_35.57785364980332" accel="1.0" decel="5.0" sigma="0.0" length="13" maxSpeed="9.882737124945367" /><vType id="vType_car_46.89738774907587" accel="1.0" decel="5.0" sigma="0.0" length="4.5" maxSpeed="13.027052152521074" /><vType id="vType_car_3.1942265257741425" accel="1.0" decel="5.0" sigma="0.0" length="4.5" maxSpeed="0.8872851460483728" /><vType id="vType_car_25.288277357779187" accel="1.0" decel="5.0" sigma="0.0" length="4.5" maxSpeed="7.024521488271996" /><vType id="vType_car_7.046803209221634" accel="1.0" decel="5.0" sigma="0.0" length="4.5" maxSpeed="1.9574453358948984" /><vType id="vType_car_13.742384899173738" accel="1.0" decel="5.0" sigma="0.0" length="4.5" maxSpeed="3.8173291386593715" /><vType id="vType_car_3.9635426266706353" accel="1.0" decel="5.0" sigma="0.0" length="4.5" maxSpeed="1.1009840629640653" /><vType id="vType_truck_11.406941333594059" accel="1.0" decel="5.0" sigma="0.0" length="8" maxSpeed="3.1685948148872383" /><vType id="vType_car_3.0866277801486572" accel="1.0" decel="5.0" sigma="0.0" length="4.5" maxSpeed="0.8573966055968492" /><vType id="vType_car_13.512720345874529" accel="1.0" decel="5.0" sigma="0.0" length="4.5" maxSpeed="3.7535334294095914" /><vType id="vType_truck_16.620339929856637" accel="1.0" decel="5.0" sigma="0.0" length="8" maxSpeed="4.616761091626843" /><vType id="vType_car_39.28066294574795" accel="1.0" decel="5.0" sigma="0.0" length="4.5" maxSpeed="10.911295262707764" /><vType id="vType_car_42.54332971343989" accel="1.0" decel="5.0" sigma="0.0" length="4.5" maxSpeed="11.817591587066635" /><vType id="vType_car_7.393627348975849" accel="1.0" decel="5.0" sigma="0.0" length="4.5" maxSpeed="2.0537853747155133" /><vType id="vType_car_4.944787774182478" accel="1.0" decel="5.0" sigma="0.0" length="4.5" maxSpeed="1.3735521594951328" /><vType id="vType_car_19.25131632938335" accel="1.0" decel="5.0" sigma="0.0" length="4.5" maxSpeed="5.347587869273153" /><vType id="vType_car_42.525744574172826" accel="1.0" decel="5.0" sigma="0.0" length="4.5" maxSpeed="11.812706826159118" /><vType id="vType_car_2.254073741758014" accel="1.0" decel="5.0" sigma="0.0" length="4.5" maxSpeed="0.6261315949327817" /><vType id="vType_car_4.378317562792913" accel="1.0" decel="5.0" sigma="0.0" length="4.5" maxSpeed="1.2161993229980312" /><vType id="vType_car_2.451068219144081" accel="1.0" decel="5.0" sigma="0.0" length="4.5" maxSpeed="0.680852283095578" /><vType id="vType_car_44.93510432071296" accel="1.0" decel="5.0" sigma="0.0" length="4.5" maxSpeed="12.481973422420266" /><vType id="vType_car_38.96332584655704" accel="1.0" decel="5.0" sigma="0.0" length="4.5" maxSpeed="10.823146068488066" /><vType id="vType_car_46.10697174575448" accel="1.0" decel="5.0" sigma="0.0" length="4.5" maxSpeed="12.807492151598465" /><vType id="vType_car_17.355381500719588" accel="1.0" decel="5.0" sigma="0.0" length="4.5" maxSpeed="4.820939305755441" /><vType id="vType_car_2.351723828726804" accel="1.0" decel="5.0" sigma="0.0" length="4.5" maxSpeed="0.6532566190907788" /><vType id="vType_car_4.178937958748807" accel="1.0" decel="5.0" sigma="0.0" length="4.5" maxSpeed="1.1608160996524464" /><vType id="vType_car_47.00001654207123" accel="1.0" decel="5.0" sigma="0.0" length="4.5" maxSpeed="13.05556015057534" /><vType id="vType_car_16.600957121023427" accel="1.0" decel="5.0" sigma="0.0" length="4.5" maxSpeed="4.611376978062063" /><vType id="vType_car_5.9858378333303195" accel="1.0" decel="5.0" sigma="0.0" length="4.5" maxSpeed="1.6627327314806442" /><vType id="vType_car_2.729171461558741" accel="1.0" decel="5.0" sigma="0.0" length="4.5" maxSpeed="0.7581031837663169" /><vType id="vType_car_50.39667455706726" accel="1.0" decel="5.0" sigma="0.0" length="4.5" maxSpeed="13.999076265852015" /><vType id="vType_car_25.138003618465994" accel="1.0" decel="5.0" sigma="0.0" length="4.5" maxSpeed="6.9827787829072205" /><vType id="vType_car_8.192768626908473" accel="1.0" decel="5.0" sigma="0.0" length="4.5" maxSpeed="2.2757690630301313" /><vType id="vType_car_6.741732118753889" accel="1.0" decel="5.0" sigma="0.0" length="4.5" maxSpeed="1.8727033663205248" /><vType id="vType_car_3.2757117715211637" accel="1.0" decel="5.0" sigma="0.0" length="4.5" maxSpeed="0.9099199365336565" /><vType id="vType_car_2.766589646096017" accel="1.0" decel="5.0" sigma="0.0" length="4.5" maxSpeed="0.7684971239155602" /><vType id="vType_car_23.77998274304965" accel="1.0" decel="5.0" sigma="0.0" length="4.5" maxSpeed="6.605550761958236" /><vType id="vType_car_6.929124788074838" accel="1.0" decel="5.0" sigma="0.0" length="4.5" maxSpeed="1.924756885576344" /><vType id="vType_car_34.818396973863464" accel="1.0" decel="5.0" sigma="0.0" length="4.5" maxSpeed="9.671776937184296" /><vType id="vType_car_7.540308425904998" accel="1.0" decel="5.0" sigma="0.0" length="4.5" maxSpeed="2.094530118306944" /><vType id="vType_car_37.66007578944986" accel="1.0" decel="5.0" sigma="0.0" length="4.5" maxSpeed="10.461132163736073" /><vType id="vType_car_57.77567822268572" accel="1.0" decel="5.0" sigma="0.0" length="4.5" maxSpeed="16.048799506301588" /><vType id="vType_car_2.674369991226149" accel="1.0" decel="5.0" sigma="0.0" length="4.5" maxSpeed="0.7428805531183748" /><vType id="vType_car_3.201892747562308" accel="1.0" decel="5.0" sigma="0.0" length="4.5" maxSpeed="0.8894146521006411" /><vType id="vType_car_2.6452685685401742" accel="1.0" decel="5.0" sigma="0.0" length="4.5" maxSpeed="0.7347968245944928" /><vType id="vType_car_5.876816962625092" accel="1.0" decel="5.0" sigma="0.0" length="4.5" maxSpeed="1.6324491562847478" /><vType id="vType_car_11.085587622531113" accel="1.0" decel="5.0" sigma="0.0" length="4.5" maxSpeed="3.079329895147531" /><vType id="vType_car_7.094113594740732" accel="1.0" decel="5.0" sigma="0.0" length="4.5" maxSpeed="1.9705871096502035" /><vType id="vType_car_2.5640286321949013" accel="1.0" decel="5.0" sigma="0.0" length="4.5" maxSpeed="0.7122301756096948" /><vType id="vType_car_13.8109740700248" accel="1.0" decel="5.0" sigma="0.0" length="4.5" maxSpeed="3.836381686118" /><vType id="vType_car_8.746823040605914" accel="1.0" decel="5.0" sigma="0.0" length="4.5" maxSpeed="2.429673066834976" /><vType id="vType_car_5.849020703854035" accel="1.0" decel="5.0" sigma="0.0" length="4.5" maxSpeed="1.6247279732927875" /><vType id="vType_car_4.317711119934409" accel="1.0" decel="5.0" sigma="0.0" length="4.5" maxSpeed="1.1993641999817803" /><vType id="vType_car_10.456337265816208" accel="1.0" decel="5.0" sigma="0.0" length="4.5" maxSpeed="2.904538129393391" /><vType id="vType_car_9.679015104209137" accel="1.0" decel="5.0" sigma="0.0" length="4.5" maxSpeed="2.6886153067247602" /><vType id="vType_car_18.558847543553338" accel="1.0" decel="5.0" sigma="0.0" length="4.5" maxSpeed="5.155235428764816" /><vType id="vType_car_80.21186113688759" accel="1.0" decel="5.0" sigma="0.0" length="4.5" maxSpeed="22.28107253802433" /><vType id="vType_car_2.612890221312904" accel="1.0" decel="5.0" sigma="0.0" length="4.5" maxSpeed="0.7258028392535845" /><vType id="vType_car_18.16443001004149" accel="1.0" decel="5.0" sigma="0.0" length="4.5" maxSpeed="5.045675002789302" /><vType id="vType_car_12.619944782037074" accel="1.0" decel="5.0" sigma="0.0" length="4.5" maxSpeed="3.5055402172325203" /><route id="route_north_to_east" edges="north_to_center center_to_east" /><route id="route_north_to_south" edges="north_to_center center_to_south" /><route id="route_north_to_west" edges="north_to_center center_to_west" /><route id="route_east_to_west" edges="east_to_center center_to_west" /><route id="route_east_to_south" edges="east_to_center center_to_south" /><route id="route_east_to_north" edges="east_to_center center_to_north" /><route id="route_south_to_west" edges="south_to_center center_to_west" /><route id="route_south_to_north" edges="south_to_center center_to_north" /><route id="route_south_to_east" edges="south_to_center center_to_east" /><route id="route_west_to_south" edges="west_to_center center_to_south" /><route id="route_west_to_north" edges="west_to_center center_to_north" /><route id="route_west_to_east" edges="west_to_center center_to_east" /><vehicle id="veh493" type="vType_car_17.93364371589037" route="route_west_to_east" depart="0.05" /><vehicle id="veh511" type="vType_car_20.770687390898228" route="route_west_to_east" depart="0.05" /><vehicle id="veh549" type="vType_car_18.5076530046208" route="route_east_to_west" depart="0.05" /><vehicle id="veh628" type="vType_car_22.900901623609034" route="route_west_to_east" depart="7.42" /><vehicle id="veh613" type="vType_car_26.708716769014742" route="route_west_to_east" depart="14.07" /><vehicle id="veh640" type="vType_car_7.265858706625973" route="route_east_to_north" depart="19.08" /><vehicle id="veh646" type="vType_car_18.45543495990173" route="route_west_to_north" depart="21.00" /><vehicle id="veh653" type="vType_bus_35.57785364980332" route="route_west_to_east" depart="22.77" /><vehicle id="veh663" type="vType_truck_16.620339929856637" route="route_west_to_north" depart="22.95" /><vehicle id="veh664" type="vType_car_39.28066294574795" route="route_west_to_east" depart="23.59" /><vehicle id="veh665" type="vType_car_42.54332971343989" route="route_west_to_south" depart="23.59" /><vehicle id="veh677" type="vType_car_44.93510432071296" route="route_west_to_south" depart="25.55" /><vehicle id="veh684" type="vType_car_47.00001654207123" route="route_west_to_east" depart="28.33" /><vehicle id="veh696" type="vType_car_23.77998274304965" route="route_east_to_west" depart="40.26" /><vehicle id="veh697" type="vType_car_6.929124788074838" route="route_east_to_north" depart="40.49" /><vehicle id="veh702" type="vType_car_37.66007578944986" route="route_west_to_east" depart="41.85" /><vehicle id="veh703" type="vType_car_57.77567822268572" route="route_west_to_east" depart="41.95" /></routes>