<?xml version='1.0' encoding='utf-8'?>
<routes><vType id="vType_car_20.30427878335406" accel="1.0" decel="5.0" sigma="0.0" length="4.5" maxSpeed="5.640077439820573" /><vType id="vType_car_17.04504399349318" accel="1.0" decel="5.0" sigma="0.0" length="4.5" maxSpeed="4.734734442636994" /><vType id="vType_car_11.256469936045091" accel="1.0" decel="5.0" sigma="0.0" length="4.5" maxSpeed="3.12679720445697" /><vType id="vType_car_11.869657018678874" accel="1.0" decel="5.0" sigma="0.0" length="4.5" maxSpeed="3.29712694963302" /><vType id="vType_car_13.843966987147072" accel="1.0" decel="5.0" sigma="0.0" length="4.5" maxSpeed="3.845546385318631" /><vType id="vType_car_8.482694756288028" accel="1.0" decel="5.0" sigma="0.0" length="4.5" maxSpeed="2.356304098968897" /><vType id="vType_car_15.488316996029178" accel="1.0" decel="5.0" sigma="0.0" length="4.5" maxSpeed="4.302310276674771" /><vType id="vType_car_12.896712055139009" accel="1.0" decel="5.0" sigma="0.0" length="4.5" maxSpeed="3.582420015316391" /><vType id="vType_car_3.8782450832025894" accel="1.0" decel="5.0" sigma="0.0" length="4.5" maxSpeed="1.0772903008896082" /><vType id="vType_car_11.353847087380638" accel="1.0" decel="5.0" sigma="0.0" length="4.5" maxSpeed="3.153846413161288" /><vType id="vType_car_10.69894859535001" accel="1.0" decel="5.0" sigma="0.0" length="4.5" maxSpeed="2.971930165375003" /><vType id="vType_car_54.740321264710126" accel="1.0" decel="5.0" sigma="0.0" length="4.5" maxSpeed="15.205644795752812" /><vType id="vType_car_1.7618660647023943" accel="1.0" decel="5.0" sigma="0.0" length="4.5" maxSpeed="0.4894072401951095" /><vType id="vType_car_3.7322432205718292" accel="1.0" decel="5.0" sigma="0.0" length="4.5" maxSpeed="1.0367342279366192" /><vType id="vType_car_34.65146201914424" accel="1.0" decel="5.0" sigma="0.0" length="4.5" maxSpeed="9.625406116428955" /><vType id="vType_car_1.9220357069480665" accel="1.0" decel="5.0" sigma="0.0" length="4.5" maxSpeed="0.5338988074855741" /><vType id="vType_car_15.508315950734493" accel="1.0" decel="5.0" sigma="0.0" length="4.5" maxSpeed="4.307865541870693" /><vType id="vType_car_3.641975350388248" accel="1.0" decel="5.0" sigma="0.0" length="4.5" maxSpeed="1.0116598195522912" /><vType id="vType_car_2.7330050584995758" accel="1.0" decel="5.0" sigma="0.0" length="4.5" maxSpeed="0.7591680718054377" /><vType id="vType_car_3.697028105317733" accel="1.0" decel="5.0" sigma="0.0" length="4.5" maxSpeed="1.026952251477148" /><vType id="vType_car_56.06099981505769" accel="1.0" decel="5.0" sigma="0.0" length="4.5" maxSpeed="15.572499948627136" /><vType id="vType_car_20.93554800987889" accel="1.0" decel="5.0" sigma="0.0" length="4.5" maxSpeed="5.815430002744136" /><vType id="vType_car_51.034387953575525" accel="1.0" decel="5.0" sigma="0.0" length="4.5" maxSpeed="14.1762188759932" /><vType id="vType_car_43.28729900512586" accel="1.0" decel="5.0" sigma="0.0" length="4.5" maxSpeed="12.024249723646072" /><vType id="vType_car_23.528503258379256" accel="1.0" decel="5.0" sigma="0.0" length="4.5" maxSpeed="6.535695349549793" /><vType id="vType_car_21.5988105754498" accel="1.0" decel="5.0" sigma="0.0" length="4.5" maxSpeed="5.999669604291611" /><vType id="vType_car_21.09884437609979" accel="1.0" decel="5.0" sigma="0.0" length="4.5" maxSpeed="5.860790104472164" /><vType id="vType_car_21.06597508936879" accel="1.0" decel="5.0" sigma="0.0" length="4.5" maxSpeed="5.851659747046886" /><vType id="vType_car_24.151013507845914" accel="1.0" decel="5.0" sigma="0.0" length="4.5" maxSpeed="6.708614863290531" /><vType id="vType_car_40.78485445056838" accel="1.0" decel="5.0" sigma="0.0" length="4.5" maxSpeed="11.329126236268994" /><vType id="vType_car_23.850016639613443" accel="1.0" decel="5.0" sigma="0.0" length="4.5" maxSpeed="6.6250046221148455" /><vType id="vType_car_17.736317284338796" accel="1.0" decel="5.0" sigma="0.0" length="4.5" maxSpeed="4.926754801205221" /><vType id="vType_car_11.178303581250644" accel="1.0" decel="5.0" sigma="0.0" length="4.5" maxSpeed="3.1050843281251788" /><vType id="vType_car_58.925079200921644" accel="1.0" decel="5.0" sigma="0.0" length="4.5" maxSpeed="16.368077555811567" /><vType id="vType_car_10.918230286355028" accel="1.0" decel="5.0" sigma="0.0" length="4.5" maxSpeed="3.03284174620973" /><vType id="vType_car_11.261165500434137" accel="1.0" decel="5.0" sigma="0.0" length="4.5" maxSpeed="3.1281015278983713" /><vType id="vType_car_14.800622339010312" accel="1.0" decel="5.0" sigma="0.0" length="4.5" maxSpeed="4.11128398305842" /><vType id="vType_car_36.40275280792603" accel="1.0" decel="5.0" sigma="0.0" length="4.5" maxSpeed="10.111875779979451" /><vType id="vType_car_11.577513735311937" accel="1.0" decel="5.0" sigma="0.0" length="4.5" maxSpeed="3.2159760375866493" /><vType id="vType_car_3.5237321294047885" accel="1.0" decel="5.0" sigma="0.0" length="4.5" maxSpeed="0.978814480390219" /><vType id="vType_car_42.42292204474302" accel="1.0" decel="5.0" sigma="0.0" length="4.5" maxSpeed="11.784145012428615" /><vType id="vType_car_19.548447935705624" accel="1.0" decel="5.0" sigma="0.0" length="4.5" maxSpeed="5.430124426584896" /><vType id="vType_car_12.89586427976913" accel="1.0" decel="5.0" sigma="0.0" length="4.5" maxSpeed="3.5821845221580917" /><vType id="vType_car_5.556462329099759" accel="1.0" decel="5.0" sigma="0.0" length="4.5" maxSpeed="1.5434617580832664" /><vType id="vType_car_7.380608902323217" accel="1.0" decel="5.0" sigma="0.0" length="4.5" maxSpeed="2.0501691395342267" /><vType id="vType_car_6.195299402224974" accel="1.0" decel="5.0" sigma="0.0" length="4.5" maxSpeed="1.7209165006180482" /><vType id="vType_truck_16.229496927926757" accel="1.0" decel="5.0" sigma="0.0" length="8" maxSpeed="4.508193591090766" /><vType id="vType_car_13.616769616838493" accel="1.0" decel="5.0" sigma="0.0" length="4.5" maxSpeed="3.782436004677359" /><vType id="vType_car_16.503749949334797" accel="1.0" decel="5.0" sigma="0.0" length="4.5" maxSpeed="4.584374985926332" /><vType id="vType_car_4.1019527088549825" accel="1.0" decel="5.0" sigma="0.0" length="4.5" maxSpeed="1.139431308015273" /><vType id="vType_car_9.23447214945588" accel="1.0" decel="5.0" sigma="0.0" length="4.5" maxSpeed="2.5651311526266336" /><vType id="vType_car_14.708802447020421" accel="1.0" decel="5.0" sigma="0.0" length="4.5" maxSpeed="4.085778457505673" /><vType id="vType_car_18.012533208028625" accel="1.0" decel="5.0" sigma="0.0" length="4.5" maxSpeed="5.003481446674618" /><vType id="vType_car_7.220541921044256" accel="1.0" decel="5.0" sigma="0.0" length="4.5" maxSpeed="2.0057060891789598" /><vType id="vType_car_8.395198872091065" accel="1.0" decel="5.0" sigma="0.0" length="4.5" maxSpeed="2.3319996866919626" /><route id="route_north_to_east" edges="north_to_center center_to_east" /><route id="route_north_to_south" edges="north_to_center center_to_south" /><route id="route_north_to_west" edges="north_to_center center_to_west" /><route id="route_east_to_west" edges="east_to_center center_to_west" /><route id="route_east_to_south" edges="east_to_center center_to_south" /><route id="route_east_to_north" edges="east_to_center center_to_north" /><route id="route_south_to_west" edges="south_to_center center_to_west" /><route id="route_south_to_north" edges="south_to_center center_to_north" /><route id="route_south_to_east" edges="south_to_center center_to_east" /><route id="route_west_to_south" edges="west_to_center center_to_south" /><route id="route_west_to_north" edges="west_to_center center_to_north" /><route id="route_west_to_east" edges="west_to_center center_to_east" /><vehicle id="veh68" type="vType_car_20.30427878335406" route="route_east_to_south" depart="0.04" /><vehicle id="veh83" type="vType_car_17.04504399349318" route="route_east_to_south" depart="0.04" /><vehicle id="veh119" type="vType_car_11.256469936045091" route="route_north_to_east" depart="0.04" /><vehicle id="veh156" type="vType_car_11.869657018678874" route="route_north_to_east" depart="0.04" /><vehicle id="veh231" type="vType_car_15.488316996029178" route="route_north_to_south" depart="0.04" /><vehicle id="veh165" type="vType_car_10.69894859535001" route="route_north_to_east" depart="0.04" /><vehicle id="veh243" type="vType_car_34.65146201914424" route="route_east_to_west" depart="5.79" /><vehicle id="veh245" type="vType_car_15.508315950734493" route="route_east_to_north" depart="7.97" /><vehicle id="veh250" type="vType_car_56.06099981505769" route="route_east_to_west" depart="8.65" /><vehicle id="veh254" type="vType_car_20.93554800987889" route="route_east_to_south" depart="11.94" /><vehicle id="veh255" type="vType_car_51.034387953575525" route="route_east_to_west" depart="15.09" /><vehicle id="veh256" type="vType_car_43.28729900512586" route="route_east_to_west" depart="15.55" /><vehicle id="veh257" type="vType_car_23.528503258379256" route="route_east_to_south" depart="16.56" /><vehicle id="veh258" type="vType_car_21.5988105754498" route="route_east_to_south" depart="19.49" /><vehicle id="veh259" type="vType_car_21.09884437609979" route="route_south_to_east" depart="20.74" /><vehicle id="veh260" type="vType_car_21.06597508936879" route="route_east_to_south" depart="21.85" /><vehicle id="veh262" type="vType_car_24.151013507845914" route="route_east_to_south" depart="25.60" /><vehicle id="veh263" type="vType_car_40.78485445056838" route="route_east_to_west" depart="25.89" /><vehicle id="veh265" type="vType_car_23.850016639613443" route="route_east_to_south" depart="27.57" /><vehicle id="veh268" type="vType_car_17.736317284338796" route="route_south_to_east" depart="29.54" /><vehicle id="veh271" type="vType_car_58.925079200921644" route="route_east_to_west" depart="32.43" /><vehicle id="veh273" type="vType_car_11.261165500434137" route="route_east_to_north" depart="33.33" /><vehicle id="veh277" type="vType_car_14.800622339010312" route="route_north_to_south" depart="34.51" /><vehicle id="veh279" type="vType_car_36.40275280792603" route="route_south_to_west" depart="36.58" /><vehicle id="veh283" type="vType_car_42.42292204474302" route="route_south_to_west" depart="40.58" /><vehicle id="veh284" type="vType_car_19.548447935705624" route="route_north_to_south" depart="43.02" /><vehicle id="veh285" type="vType_car_12.89586427976913" route="route_south_to_east" depart="44.41" /><vehicle id="veh297" type="vType_truck_16.229496927926757" route="route_north_to_east" depart="51.24" /><vehicle id="veh300" type="vType_car_16.503749949334797" route="route_south_to_east" depart="51.92" /><vehicle id="veh304" type="vType_car_18.012533208028625" route="route_south_to_east" depart="55.75" /></routes>