<?xml version="1.0" encoding="utf-8"?>
<routes>
	<vType id="vType_car_4.121078607617349" accel="1.0" decel="5.0" sigma="0.0" length="4.5" maxSpeed="1.1447440576714858" />
	<vType id="vType_car_13.277081879900052" accel="1.0" decel="5.0" sigma="0.0" length="4.5" maxSpeed="3.688078299972237" />
	<vType id="vType_car_19.611931337450624" accel="1.0" decel="5.0" sigma="0.0" length="4.5" maxSpeed="5.447758704847396" />
	<vType id="vType_car_23.289356619210803" accel="1.0" decel="5.0" sigma="0.0" length="4.5" maxSpeed="6.4692657275585566" />
	<vType id="vType_car_13.791732495514346" accel="1.0" decel="5.0" sigma="0.0" length="4.5" maxSpeed="3.8310368043095404" />
	<vType id="vType_car_13.40149746860504" accel="1.0" decel="5.0" sigma="0.0" length="4.5" maxSpeed="3.722638185723622" />
	<vType id="vType_car_56.05113238882919" accel="1.0" decel="5.0" sigma="0.0" length="4.5" maxSpeed="15.569758996896997" />
	<vType id="vType_bus_3.154358645569083" accel="1.0" decel="5.0" sigma="0.0" length="13" maxSpeed="0.8762107348803008" />
	<vType id="vType_car_11.034304511360974" accel="1.0" decel="5.0" sigma="0.0" length="4.5" maxSpeed="3.065084586489159" />
	<vType id="vType_car_5.863864716692556" accel="1.0" decel="5.0" sigma="0.0" length="4.5" maxSpeed="1.6288513101923767" />
	<vType id="vType_car_13.869107728102623" accel="1.0" decel="5.0" sigma="0.0" length="4.5" maxSpeed="3.8525299244729507" />
	<vType id="vType_car_15.75571375841121" accel="1.0" decel="5.0" sigma="0.0" length="4.5" maxSpeed="4.376587155114224" />
	<vType id="vType_car_10.693067467990288" accel="1.0" decel="5.0" sigma="0.0" length="4.5" maxSpeed="2.9702965188861907" />
	<vType id="vType_car_2.7406805450926135" accel="1.0" decel="5.0" sigma="0.0" length="4.5" maxSpeed="0.7613001514146148" />
	<vType id="vType_car_18.612572120182037" accel="1.0" decel="5.0" sigma="0.0" length="4.5" maxSpeed="5.170158922272788" />
	<vType id="vType_car_16.330797133351293" accel="1.0" decel="5.0" sigma="0.0" length="4.5" maxSpeed="4.536332537042026" />
	<vType id="vType_car_2.715755620904047" accel="1.0" decel="5.0" sigma="0.0" length="4.5" maxSpeed="0.7543765613622353" />
	<vType id="vType_car_5.352251022344027" accel="1.0" decel="5.0" sigma="0.0" length="4.5" maxSpeed="1.486736395095563" />
	<vType id="vType_car_38.23448445818779" accel="1.0" decel="5.0" sigma="0.0" length="4.5" maxSpeed="10.620690127274385" />
	<vType id="vType_car_44.417118267453" accel="1.0" decel="5.0" sigma="0.0" length="4.5" maxSpeed="12.338088407625833" />
	<vType id="vType_car_4.983309767574077" accel="1.0" decel="5.0" sigma="0.0" length="4.5" maxSpeed="1.3842527132150215" />
	<vType id="vType_truck_14.59582834426581" accel="1.0" decel="5.0" sigma="0.0" length="8" maxSpeed="4.054396762296058" />
	<vType id="vType_car_19.252144524910655" accel="1.0" decel="5.0" sigma="0.0" length="4.5" maxSpeed="5.347817923586293" />
	<vType id="vType_car_64.42837542438193" accel="1.0" decel="5.0" sigma="0.0" length="4.5" maxSpeed="17.896770951217203" />
	<vType id="vType_car_11.080940807742136" accel="1.0" decel="5.0" sigma="0.0" length="4.5" maxSpeed="3.0780391132617044" />
	<vType id="vType_bus_55.460162703817154" accel="1.0" decel="5.0" sigma="0.0" length="13" maxSpeed="15.40560075106032" />
	<vType id="vType_truck_12.175206167187055" accel="1.0" decel="5.0" sigma="0.0" length="8" maxSpeed="3.382001713107515" />
	<vType id="vType_car_20.688667600066818" accel="1.0" decel="5.0" sigma="0.0" length="4.5" maxSpeed="5.746852111129671" />
	<vType id="vType_car_3.839856936385263" accel="1.0" decel="5.0" sigma="0.0" length="4.5" maxSpeed="1.066626926773684" />
	<vType id="vType_car_52.590932358144464" accel="1.0" decel="5.0" sigma="0.0" length="4.5" maxSpeed="14.608592321706794" />
	<vType id="vType_car_21.591210195049424" accel="1.0" decel="5.0" sigma="0.0" length="4.5" maxSpeed="5.997558387513728" />
	<vType id="vType_car_3.3222065117160517" accel="1.0" decel="5.0" sigma="0.0" length="4.5" maxSpeed="0.9228351421433477" />
	<vType id="vType_car_4.200888915151243" accel="1.0" decel="5.0" sigma="0.0" length="4.5" maxSpeed="1.1669135875420118" />
	<vType id="vType_car_50.24193119868995" accel="1.0" decel="5.0" sigma="0.0" length="4.5" maxSpeed="13.956091999636095" />
	<vType id="vType_car_48.683114466617" accel="1.0" decel="5.0" sigma="0.0" length="4.5" maxSpeed="13.523087351838054" />
	<vType id="vType_car_40.55288116948618" accel="1.0" decel="5.0" sigma="0.0" length="4.5" maxSpeed="11.264689213746161" />
	<vType id="vType_car_43.43884432885108" accel="1.0" decel="5.0" sigma="0.0" length="4.5" maxSpeed="12.066345646903079" />
	<vType id="vType_car_41.864597332672" accel="1.0" decel="5.0" sigma="0.0" length="4.5" maxSpeed="11.629054814631111" />
	<vType id="vType_car_51.54044130851792" accel="1.0" decel="5.0" sigma="0.0" length="4.5" maxSpeed="14.316789252366089" />
	<vType id="vType_car_41.46831471023728" accel="1.0" decel="5.0" sigma="0.0" length="4.5" maxSpeed="11.518976308399244" />
	<vType id="vType_car_47.44843468214016" accel="1.0" decel="5.0" sigma="0.0" length="4.5" maxSpeed="13.180120745038932" />
	<vType id="vType_car_13.271016680641077" accel="1.0" decel="5.0" sigma="0.0" length="4.5" maxSpeed="3.6863935224002993" />
	<vType id="vType_car_37.869336276254614" accel="1.0" decel="5.0" sigma="0.0" length="4.5" maxSpeed="10.519260076737392" />
	<vType id="vType_car_8.53238060218436" accel="1.0" decel="5.0" sigma="0.0" length="4.5" maxSpeed="2.370105722828989" />
	<vType id="vType_car_13.728805146617514" accel="1.0" decel="5.0" sigma="0.0" length="4.5" maxSpeed="3.8135569851715316" />
	<vType id="vType_car_22.892416250952678" accel="1.0" decel="5.0" sigma="0.0" length="4.5" maxSpeed="6.359004514153521" />
	<vType id="vType_car_2.705087291260242" accel="1.0" decel="5.0" sigma="0.0" length="4.5" maxSpeed="0.7514131364611782" />
	<vType id="vType_car_0.3523732129404788" accel="1.0" decel="5.0" sigma="0.0" length="4.5" maxSpeed="0.09788144803902188" />
	<vType id="vType_car_5.24897885502884" accel="1.0" decel="5.0" sigma="0.0" length="4.5" maxSpeed="1.4580496819524555" />
	<vType id="vType_car_14.515116260206984" accel="1.0" decel="5.0" sigma="0.0" length="4.5" maxSpeed="4.031976738946384" />
	<vType id="vType_car_13.227012306353757" accel="1.0" decel="5.0" sigma="0.0" length="4.5" maxSpeed="3.6741700850982655" />
	<vType id="vType_car_36.34378775504935" accel="1.0" decel="5.0" sigma="0.0" length="4.5" maxSpeed="10.095496598624818" />
	<vType id="vType_car_15.72367483517337" accel="1.0" decel="5.0" sigma="0.0" length="4.5" maxSpeed="4.367687454214825" />
	<vType id="vType_car_3.846799651515488" accel="1.0" decel="5.0" sigma="0.0" length="4.5" maxSpeed="1.0685554587543022" />
	<vType id="vType_car_14.860876481958954" accel="1.0" decel="5.0" sigma="0.0" length="4.5" maxSpeed="4.128021244988598" />
	<vType id="vType_car_16.248922175184312" accel="1.0" decel="5.0" sigma="0.0" length="4.5" maxSpeed="4.513589493106753" />
	<vType id="vType_car_39.18491155935701" accel="1.0" decel="5.0" sigma="0.0" length="4.5" maxSpeed="10.884697655376948" />
	<vType id="vType_car_10.217523707971024" accel="1.0" decel="5.0" sigma="0.0" length="4.5" maxSpeed="2.838201029991951" />
	<vType id="vType_car_10.939770444111698" accel="1.0" decel="5.0" sigma="0.0" length="4.5" maxSpeed="3.0388251233643606" />
	<vType id="vType_car_13.410512272168003" accel="1.0" decel="5.0" sigma="0.0" length="4.5" maxSpeed="3.725142297824445" />
	<vType id="vType_car_27.99597639185781" accel="1.0" decel="5.0" sigma="0.0" length="4.5" maxSpeed="7.776660108849391" />
	<vType id="vType_car_2.807695104736989" accel="1.0" decel="5.0" sigma="0.0" length="4.5" maxSpeed="0.7799153068713859" />
	<vType id="vType_car_33.111593924278836" accel="1.0" decel="5.0" sigma="0.0" length="4.5" maxSpeed="9.197664978966342" />
	<vType id="vType_car_5.369688789049396" accel="1.0" decel="5.0" sigma="0.0" length="4.5" maxSpeed="1.4915802191803877" />
	<vType id="vType_car_19.91346082673622" accel="1.0" decel="5.0" sigma="0.0" length="4.5" maxSpeed="5.531516896315616" />
	<vType id="vType_car_31.81278811102872" accel="1.0" decel="5.0" sigma="0.0" length="4.5" maxSpeed="8.836885586396866" />
	<vType id="vType_car_22.360438334461303" accel="1.0" decel="5.0" sigma="0.0" length="4.5" maxSpeed="6.211232870683695" />
	<vType id="vType_car_29.397625341017193" accel="1.0" decel="5.0" sigma="0.0" length="4.5" maxSpeed="8.166007039171442" />
	<vType id="vType_car_3.4985414271936968" accel="1.0" decel="5.0" sigma="0.0" length="4.5" maxSpeed="0.9718170631093602" />
	<vType id="vType_car_5.8635656257032425" accel="1.0" decel="5.0" sigma="0.0" length="4.5" maxSpeed="1.6287682293620118" />
	<vType id="vType_car_43.59211862188405" accel="1.0" decel="5.0" sigma="0.0" length="4.5" maxSpeed="12.108921839412234" />
	<vType id="vType_car_3.8483196013307137" accel="1.0" decel="5.0" sigma="0.0" length="4.5" maxSpeed="1.0689776670363094" />
	<vType id="vType_car_4.709936577477395" accel="1.0" decel="5.0" sigma="0.0" length="4.5" maxSpeed="1.3083157159659429" />
	<vType id="vType_car_10.90139334661255" accel="1.0" decel="5.0" sigma="0.0" length="4.5" maxSpeed="3.028164818503486" />
	<vType id="vType_car_36.422383020334166" accel="1.0" decel="5.0" sigma="0.0" length="4.5" maxSpeed="10.11732861675949" />
	<vType id="vType_car_1.1745773764682628" accel="1.0" decel="5.0" sigma="0.0" length="4.5" maxSpeed="0.32627149346340634" />
	<vType id="vType_car_4.967006194097327" accel="1.0" decel="5.0" sigma="0.0" length="4.5" maxSpeed="1.3797239428048131" />
	<vType id="vType_car_3.766995069099671" accel="1.0" decel="5.0" sigma="0.0" length="4.5" maxSpeed="1.046387519194353" />
	<vType id="vType_car_18.97587825303979" accel="1.0" decel="5.0" sigma="0.0" length="4.5" maxSpeed="5.271077292511053" />
	<vType id="vType_car_39.396522879245964" accel="1.0" decel="5.0" sigma="0.0" length="4.5" maxSpeed="10.943478577568323" />
	<vType id="vType_car_39.48693890134539" accel="1.0" decel="5.0" sigma="0.0" length="4.5" maxSpeed="10.968594139262608" />
	<vType id="vType_car_4.5131640019758095" accel="1.0" decel="5.0" sigma="0.0" length="4.5" maxSpeed="1.2536566672155025" />
	<vType id="vType_bus_36.889928082412446" accel="1.0" decel="5.0" sigma="0.0" length="13" maxSpeed="10.247202245114568" />
	<vType id="vType_car_24.06511639091726" accel="1.0" decel="5.0" sigma="0.0" length="4.5" maxSpeed="6.6847545530325725" />
	<vType id="vType_car_30.16031952159422" accel="1.0" decel="5.0" sigma="0.0" length="4.5" maxSpeed="8.377866533776173" />
	<vType id="vType_car_12.183162176606137" accel="1.0" decel="5.0" sigma="0.0" length="4.5" maxSpeed="3.384211715723927" />
	<vType id="vType_car_11.149875692947026" accel="1.0" decel="5.0" sigma="0.0" length="4.5" maxSpeed="3.097187692485285" />
	<vType id="vType_car_18.86456584367963" accel="1.0" decel="5.0" sigma="0.0" length="4.5" maxSpeed="5.2401571787998975" />
	<vType id="vType_car_4.94492733156739" accel="1.0" decel="5.0" sigma="0.0" length="4.5" maxSpeed="1.3735909254353862" />
	<vType id="vType_car_5.213320733415843" accel="1.0" decel="5.0" sigma="0.0" length="4.5" maxSpeed="1.4481446481710676" />
	<vType id="vType_car_7.474964651361116" accel="1.0" decel="5.0" sigma="0.0" length="4.5" maxSpeed="2.0763790698225324" />
	<vType id="vType_car_18.866124528605646" accel="1.0" decel="5.0" sigma="0.0" length="4.5" maxSpeed="5.240590146834902" />
	<vType id="vType_car_50.819987494275495" accel="1.0" decel="5.0" sigma="0.0" length="4.5" maxSpeed="14.116663192854304" />
	<vType id="vType_car_57.362203163292946" accel="1.0" decel="5.0" sigma="0.0" length="4.5" maxSpeed="15.933945323136928" />
	<vType id="vType_car_17.796589234343816" accel="1.0" decel="5.0" sigma="0.0" length="4.5" maxSpeed="4.943497009539949" />
	<vType id="vType_car_11.143019393234315" accel="1.0" decel="5.0" sigma="0.0" length="4.5" maxSpeed="3.09528316478731" />
	<vType id="vType_car_7.8793045758491935" accel="1.0" decel="5.0" sigma="0.0" length="4.5" maxSpeed="2.188695715513665" />
	<vType id="vType_car_41.67981173296994" accel="1.0" decel="5.0" sigma="0.0" length="4.5" maxSpeed="11.577725481380538" />
	<vType id="vType_car_24.032707551254624" accel="1.0" decel="5.0" sigma="0.0" length="4.5" maxSpeed="6.6757520975707285" />
	<vType id="vType_car_13.739702437591909" accel="1.0" decel="5.0" sigma="0.0" length="4.5" maxSpeed="3.8165840104421966" />
	<vType id="vType_bus_41.46286163080263" accel="1.0" decel="5.0" sigma="0.0" length="13" maxSpeed="11.51746156411184" />
	<vType id="vType_car_67.05923574516089" accel="1.0" decel="5.0" sigma="0.0" length="4.5" maxSpeed="18.627565484766915" />
	<vType id="vType_car_42.69540811699039" accel="1.0" decel="5.0" sigma="0.0" length="4.5" maxSpeed="11.859835588052887" />
	<vType id="vType_car_3.978794458677551" accel="1.0" decel="5.0" sigma="0.0" length="4.5" maxSpeed="1.1052206829659865" />
	<vType id="vType_car_41.58109666224363" accel="1.0" decel="5.0" sigma="0.0" length="4.5" maxSpeed="11.550304628401008" />
	<vType id="vType_car_47.78160447420862" accel="1.0" decel="5.0" sigma="0.0" length="4.5" maxSpeed="13.272667909502394" />
	<vType id="vType_car_20.473207161148665" accel="1.0" decel="5.0" sigma="0.0" length="4.5" maxSpeed="5.687001989207962" />
	<vType id="vType_car_4.5720551817229955" accel="1.0" decel="5.0" sigma="0.0" length="4.5" maxSpeed="1.2700153282563875" />
	<vType id="vType_car_7.616122927597074" accel="1.0" decel="5.0" sigma="0.0" length="4.5" maxSpeed="2.1155897021102983" />
	<vType id="vType_car_34.21439094329442" accel="1.0" decel="5.0" sigma="0.0" length="4.5" maxSpeed="9.50399748424845" />
	<vType id="vType_car_20.36680910271155" accel="1.0" decel="5.0" sigma="0.0" length="4.5" maxSpeed="5.65744697297543" />
	<vType id="vType_car_47.289597273095914" accel="1.0" decel="5.0" sigma="0.0" length="4.5" maxSpeed="13.135999242526642" />
	<vType id="vType_car_42.81548497156765" accel="1.0" decel="5.0" sigma="0.0" length="4.5" maxSpeed="11.893190269879902" />
	<vType id="vType_car_27.904558135281555" accel="1.0" decel="5.0" sigma="0.0" length="4.5" maxSpeed="7.751266148689321" />
	<vType id="vType_car_39.56626971710455" accel="1.0" decel="5.0" sigma="0.0" length="4.5" maxSpeed="10.990630476973484" />
	<vType id="vType_car_43.01139199701593" accel="1.0" decel="5.0" sigma="0.0" length="4.5" maxSpeed="11.94760888805998" />
	<vType id="vType_car_41.84799499353901" accel="1.0" decel="5.0" sigma="0.0" length="4.5" maxSpeed="11.624443053760837" />
	<vType id="vType_car_49.98188239586789" accel="1.0" decel="5.0" sigma="0.0" length="4.5" maxSpeed="13.883856221074414" />
	<vType id="vType_car_48.618385950389055" accel="1.0" decel="5.0" sigma="0.0" length="4.5" maxSpeed="13.505107208441403" />
	<vType id="vType_car_48.229929056318" accel="1.0" decel="5.0" sigma="0.0" length="4.5" maxSpeed="13.397202515643889" />
	<vType id="vType_car_49.86732013526048" accel="1.0" decel="5.0" sigma="0.0" length="4.5" maxSpeed="13.852033370905687" />
	<vType id="vType_car_4.630495463403366" accel="1.0" decel="5.0" sigma="0.0" length="4.5" maxSpeed="1.2862487398342684" />
	<vType id="vType_car_48.72102340165998" accel="1.0" decel="5.0" sigma="0.0" length="4.5" maxSpeed="13.533617611572215" />
	<vType id="vType_car_4.362781137881923" accel="1.0" decel="5.0" sigma="0.0" length="4.5" maxSpeed="1.2118836494116452" />
	<vType id="vType_car_55.38139066359854" accel="1.0" decel="5.0" sigma="0.0" length="4.5" maxSpeed="15.38371962877737" />
	<vType id="vType_car_35.47047934837051" accel="1.0" decel="5.0" sigma="0.0" length="4.5" maxSpeed="9.852910930102919" />
	<vType id="vType_car_84.6053569615308" accel="1.0" decel="5.0" sigma="0.0" length="4.5" maxSpeed="23.501488044869667" />
	<vType id="vType_car_66.87421491445494" accel="1.0" decel="5.0" sigma="0.0" length="4.5" maxSpeed="18.576170809570815" />
	<vType id="vType_car_3.9831112130984763" accel="1.0" decel="5.0" sigma="0.0" length="4.5" maxSpeed="1.1064197814162433" />
	<vType id="vType_car_3.5410669514656936" accel="1.0" decel="5.0" sigma="0.0" length="4.5" maxSpeed="0.9836297087404704" />
	<vType id="vType_car_35.62056371218244" accel="1.0" decel="5.0" sigma="0.0" length="4.5" maxSpeed="9.894601031161788" />
	<vType id="vType_car_41.08333071805895" accel="1.0" decel="5.0" sigma="0.0" length="4.5" maxSpeed="11.412036310571931" />
	<vType id="vType_car_15.4833410453476" accel="1.0" decel="5.0" sigma="0.0" length="4.5" maxSpeed="4.300928068152111" />
	<vType id="vType_car_10.28782793552455" accel="1.0" decel="5.0" sigma="0.0" length="4.5" maxSpeed="2.8577299820901527" />
	<vType id="vType_car_6.188904770798086" accel="1.0" decel="5.0" sigma="0.0" length="4.5" maxSpeed="1.7191402141105794" />
	<vType id="vType_car_53.694819810028555" accel="1.0" decel="5.0" sigma="0.0" length="4.5" maxSpeed="14.91522772500793" />
	<vType id="vType_car_4.544434354912399" accel="1.0" decel="5.0" sigma="0.0" length="4.5" maxSpeed="1.2623428763645552" />
	<vType id="vType_car_19.133095587674198" accel="1.0" decel="5.0" sigma="0.0" length="4.5" maxSpeed="5.314748774353943" />
	<vType id="vType_car_13.300129574866599" accel="1.0" decel="5.0" sigma="0.0" length="4.5" maxSpeed="3.694480437462944" />
	<vType id="vType_car_15.978743573071233" accel="1.0" decel="5.0" sigma="0.0" length="4.5" maxSpeed="4.438539881408675" />
	<vType id="vType_car_66.74980515450741" accel="1.0" decel="5.0" sigma="0.0" length="4.5" maxSpeed="18.541612542918724" />
	<vType id="vType_car_5.1584908852030615" accel="1.0" decel="5.0" sigma="0.0" length="4.5" maxSpeed="1.4329141347786283" />
	<vType id="vType_car_36.11180491599603" accel="1.0" decel="5.0" sigma="0.0" length="4.5" maxSpeed="10.03105692111001" />
	<vType id="vType_car_35.335298467816095" accel="1.0" decel="5.0" sigma="0.0" length="4.5" maxSpeed="9.815360685504471" />
	<vType id="vType_car_4.255495954229278" accel="1.0" decel="5.0" sigma="0.0" length="4.5" maxSpeed="1.1820822095081327" />
	<vType id="vType_car_12.362165134965876" accel="1.0" decel="5.0" sigma="0.0" length="4.5" maxSpeed="3.433934759712743" />
	<vType id="vType_car_4.172176480465598" accel="1.0" decel="5.0" sigma="0.0" length="4.5" maxSpeed="1.1589379112404439" />
	<vType id="vType_car_12.155074055938828" accel="1.0" decel="5.0" sigma="0.0" length="4.5" maxSpeed="3.3764094599830075" />
	<vType id="vType_car_8.874564133150468" accel="1.0" decel="5.0" sigma="0.0" length="4.5" maxSpeed="2.465156703652908" />
	<vType id="vType_car_12.660427819251767" accel="1.0" decel="5.0" sigma="0.0" length="4.5" maxSpeed="3.516785505347713" />
	<vType id="vType_car_53.13802692547471" accel="1.0" decel="5.0" sigma="0.0" length="4.5" maxSpeed="14.760563034854087" />
	<vType id="vType_car_13.910972126523838" accel="1.0" decel="5.0" sigma="0.0" length="4.5" maxSpeed="3.8641589240343994" />
	<vType id="vType_car_9.605734763164408" accel="1.0" decel="5.0" sigma="0.0" length="4.5" maxSpeed="2.6682596564345578" />
	<vType id="vType_car_9.509053066756977" accel="1.0" decel="5.0" sigma="0.0" length="4.5" maxSpeed="2.641403629654716" />
	<vType id="vType_car_36.65983752906434" accel="1.0" decel="5.0" sigma="0.0" length="4.5" maxSpeed="10.183288202517872" />
	<vType id="vType_car_57.39417050579207" accel="1.0" decel="5.0" sigma="0.0" length="4.5" maxSpeed="15.942825140497796" />
	<vType id="vType_car_11.46310005815697" accel="1.0" decel="5.0" sigma="0.0" length="4.5" maxSpeed="3.184194460599158" />
	<vType id="vType_car_27.96491256123792" accel="1.0" decel="5.0" sigma="0.0" length="4.5" maxSpeed="7.768031267010533" />
	<vType id="vType_car_38.62492683136369" accel="1.0" decel="5.0" sigma="0.0" length="4.5" maxSpeed="10.72914634204547" />
	<vType id="vType_car_3.918855381600422" accel="1.0" decel="5.0" sigma="0.0" length="4.5" maxSpeed="1.0885709393334506" />
	<vType id="vType_car_3.758261789324782" accel="1.0" decel="5.0" sigma="0.0" length="4.5" maxSpeed="1.0439616081457728" />
	<vType id="vType_car_11.524080675182812" accel="1.0" decel="5.0" sigma="0.0" length="4.5" maxSpeed="3.2011335208841145" />
	<vType id="vType_car_3.6815683981070295" accel="1.0" decel="5.0" sigma="0.0" length="4.5" maxSpeed="1.0226578883630637" />
	<vType id="vType_car_9.601584564624877" accel="1.0" decel="5.0" sigma="0.0" length="4.5" maxSpeed="2.66710682350691" />
	<vType id="vType_car_10.40860049080051" accel="1.0" decel="5.0" sigma="0.0" length="4.5" maxSpeed="2.8912779141112526" />
	<vType id="vType_car_4.010258008794551" accel="1.0" decel="5.0" sigma="0.0" length="4.5" maxSpeed="1.1139605579984864" />
	<vType id="vType_car_28.389343198479004" accel="1.0" decel="5.0" sigma="0.0" length="4.5" maxSpeed="7.885928666244167" />
	<vType id="vType_car_3.7669950690996696" accel="1.0" decel="5.0" sigma="0.0" length="4.5" maxSpeed="1.0463875191943526" />
	<vType id="vType_car_2.214495727862737" accel="1.0" decel="5.0" sigma="0.0" length="4.5" maxSpeed="0.6151377021840936" />
	<vType id="vType_car_13.206043810642093" accel="1.0" decel="5.0" sigma="0.0" length="4.5" maxSpeed="3.6683455029561367" />
	<vType id="vType_car_3.0448889611310044" accel="1.0" decel="5.0" sigma="0.0" length="4.5" maxSpeed="0.8458024892030568" />
	<vType id="vType_car_46.37201016421499" accel="1.0" decel="5.0" sigma="0.0" length="4.5" maxSpeed="12.881113934504164" />
	<vType id="vType_car_16.866104704479856" accel="1.0" decel="5.0" sigma="0.0" length="4.5" maxSpeed="4.685029084577738" />
	<vType id="vType_car_4.795051028717922" accel="1.0" decel="5.0" sigma="0.0" length="4.5" maxSpeed="1.3319586190883117" />
	<vType id="vType_bus_49.26663218523892" accel="1.0" decel="5.0" sigma="0.0" length="13" maxSpeed="13.68517560701081" />
	<vType id="vType_truck_8.787401075636652" accel="1.0" decel="5.0" sigma="0.0" length="8" maxSpeed="2.440944743232403" />
	<vType id="vType_car_19.401342951661253" accel="1.0" decel="5.0" sigma="0.0" length="4.5" maxSpeed="5.389261931017015" />
	<vType id="vType_car_12.543215854680978" accel="1.0" decel="5.0" sigma="0.0" length="4.5" maxSpeed="3.4842266263002717" />
	<vType id="vType_car_19.467111656118135" accel="1.0" decel="5.0" sigma="0.0" length="4.5" maxSpeed="5.407531015588371" />
	<vType id="vType_car_18.20362174468989" accel="1.0" decel="5.0" sigma="0.0" length="4.5" maxSpeed="5.056561595747191" />
	<vType id="vType_car_19.036960983750085" accel="1.0" decel="5.0" sigma="0.0" length="4.5" maxSpeed="5.288044717708357" />
	<vType id="vType_car_18.977138068619674" accel="1.0" decel="5.0" sigma="0.0" length="4.5" maxSpeed="5.271427241283242" />
	<vType id="vType_car_8.993567776368629" accel="1.0" decel="5.0" sigma="0.0" length="4.5" maxSpeed="2.498213271213508" />
	<vType id="vType_car_21.67434725474874" accel="1.0" decel="5.0" sigma="0.0" length="4.5" maxSpeed="6.0206520152079825" />
	<vType id="vType_car_19.28020979398418" accel="1.0" decel="5.0" sigma="0.0" length="4.5" maxSpeed="5.355613831662272" />
	<vType id="vType_car_53.1406192970285" accel="1.0" decel="5.0" sigma="0.0" length="4.5" maxSpeed="14.761283138063472" />
	<vType id="vType_car_46.14978722086161" accel="1.0" decel="5.0" sigma="0.0" length="4.5" maxSpeed="12.819385339128225" />
	<vType id="vType_car_20.03752334997423" accel="1.0" decel="5.0" sigma="0.0" length="4.5" maxSpeed="5.565978708326175" />
	<vType id="vType_car_4.6398731926209456" accel="1.0" decel="5.0" sigma="0.0" length="4.5" maxSpeed="1.2888536646169293" />
	<vType id="vType_car_13.946923362731134" accel="1.0" decel="5.0" sigma="0.0" length="4.5" maxSpeed="3.874145378536426" />
	<vType id="vType_car_3.9175991137964754" accel="1.0" decel="5.0" sigma="0.0" length="4.5" maxSpeed="1.0882219760545764" />
	<vType id="vType_car_4.161412659243512" accel="1.0" decel="5.0" sigma="0.0" length="4.5" maxSpeed="1.1559479609009755" />
	<vType id="vType_car_14.807349865984747" accel="1.0" decel="5.0" sigma="0.0" length="4.5" maxSpeed="4.113152740551318" />
	<vType id="vType_car_4.2985738895173515" accel="1.0" decel="5.0" sigma="0.0" length="4.5" maxSpeed="1.1940483026437088" />
	<vType id="vType_car_12.319021895322217" accel="1.0" decel="5.0" sigma="0.0" length="4.5" maxSpeed="3.4219505264783936" />
	<vType id="vType_car_4.4335513454601765" accel="1.0" decel="5.0" sigma="0.0" length="4.5" maxSpeed="1.2315420404056046" />
	<vType id="vType_car_8.382171856733502" accel="1.0" decel="5.0" sigma="0.0" length="4.5" maxSpeed="2.3283810713148614" />
	<vType id="vType_car_16.86367707449546" accel="1.0" decel="5.0" sigma="0.0" length="4.5" maxSpeed="4.6843547429154055" />
	<vType id="vType_car_17.78500894556647" accel="1.0" decel="5.0" sigma="0.0" length="4.5" maxSpeed="4.940280262657353" />
	<vType id="vType_car_2.1571877556232706" accel="1.0" decel="5.0" sigma="0.0" length="4.5" maxSpeed="0.5992188210064641" />
	<vType id="vType_car_23.783783765124408" accel="1.0" decel="5.0" sigma="0.0" length="4.5" maxSpeed="6.606606601423446" />
	<vType id="vType_car_20.761095421363567" accel="1.0" decel="5.0" sigma="0.0" length="4.5" maxSpeed="5.766970950378768" />
	<vType id="vType_car_13.404654429841381" accel="1.0" decel="5.0" sigma="0.0" length="4.5" maxSpeed="3.7235151194003837" />
	<vType id="vType_car_23.611521231448833" accel="1.0" decel="5.0" sigma="0.0" length="4.5" maxSpeed="6.558755897624676" />
	<vType id="vType_truck_27.232606632834713" accel="1.0" decel="5.0" sigma="0.0" length="8" maxSpeed="7.564612953565198" />
	<vType id="vType_car_14.282045136743578" accel="1.0" decel="5.0" sigma="0.0" length="4.5" maxSpeed="3.9672347602065496" />
	<vType id="vType_car_35.05748259495923" accel="1.0" decel="5.0" sigma="0.0" length="4.5" maxSpeed="9.738189609710897" />
	<vType id="vType_car_18.373648260384023" accel="1.0" decel="5.0" sigma="0.0" length="4.5" maxSpeed="5.1037911834400065" />
	<vType id="vType_car_38.40725128240056" accel="1.0" decel="5.0" sigma="0.0" length="4.5" maxSpeed="10.668680911777933" />
	<vType id="vType_car_3.1293249764433546" accel="1.0" decel="5.0" sigma="0.0" length="4.5" maxSpeed="0.8692569379009318" />
	<vType id="vType_car_31.882277657619127" accel="1.0" decel="5.0" sigma="0.0" length="4.5" maxSpeed="8.856188238227535" />
	<vType id="vType_car_44.41054629844229" accel="1.0" decel="5.0" sigma="0.0" length="4.5" maxSpeed="12.336262860678413" />
	<vType id="vType_car_3.5237321294047885" accel="1.0" decel="5.0" sigma="0.0" length="4.5" maxSpeed="0.978814480390219" />
	<vType id="vType_car_15.130449203983547" accel="1.0" decel="5.0" sigma="0.0" length="4.5" maxSpeed="4.202902556662096" />
	<vType id="vType_car_5.692799030057257" accel="1.0" decel="5.0" sigma="0.0" length="4.5" maxSpeed="1.5813330639047936" />
	<vType id="vType_car_39.65287007134409" accel="1.0" decel="5.0" sigma="0.0" length="4.5" maxSpeed="11.014686130928913" />
	<vType id="vType_car_4.854913517993246" accel="1.0" decel="5.0" sigma="0.0" length="4.5" maxSpeed="1.3485870883314572" />
	<vType id="vType_car_3.0539011788174832" accel="1.0" decel="5.0" sigma="0.0" length="4.5" maxSpeed="0.8483058830048564" />
	<vType id="vType_car_3.925724417030025" accel="1.0" decel="5.0" sigma="0.0" length="4.5" maxSpeed="1.0904790047305624" />
	<vType id="vType_car_3.557773162080443" accel="1.0" decel="5.0" sigma="0.0" length="4.5" maxSpeed="0.9882703228001231" />
	<vType id="vType_car_17.492558194904976" accel="1.0" decel="5.0" sigma="0.0" length="4.5" maxSpeed="4.85904394302916" />
	<vType id="vType_car_44.16477113498019" accel="1.0" decel="5.0" sigma="0.0" length="4.5" maxSpeed="12.267991981938941" />
	<vType id="vType_car_14.391455102049115" accel="1.0" decel="5.0" sigma="0.0" length="4.5" maxSpeed="3.997626417235865" />
	<vType id="vType_car_17.724087147638727" accel="1.0" decel="5.0" sigma="0.0" length="4.5" maxSpeed="4.923357541010757" />
	<vType id="vType_car_4.1969901333300035" accel="1.0" decel="5.0" sigma="0.0" length="4.5" maxSpeed="1.1658305925916677" />
	<vType id="vType_car_19.868730122420512" accel="1.0" decel="5.0" sigma="0.0" length="4.5" maxSpeed="5.519091700672364" />
	<vType id="vType_car_26.674774276876352" accel="1.0" decel="5.0" sigma="0.0" length="4.5" maxSpeed="7.409659521354542" />
	<vType id="vType_car_2.5117025752510656" accel="1.0" decel="5.0" sigma="0.0" length="4.5" maxSpeed="0.6976951597919626" />
	<vType id="vType_car_31.104674226827147" accel="1.0" decel="5.0" sigma="0.0" length="4.5" maxSpeed="8.640187285229763" />
	<vType id="vType_car_26.321001138438113" accel="1.0" decel="5.0" sigma="0.0" length="4.5" maxSpeed="7.3113892051216975" />
	<vType id="vType_car_4.461563897735958" accel="1.0" decel="5.0" sigma="0.0" length="4.5" maxSpeed="1.239323304926655" />
	<vType id="vType_car_34.825642208806144" accel="1.0" decel="5.0" sigma="0.0" length="4.5" maxSpeed="9.673789502446152" />
	<vType id="vType_car_43.73176866548061" accel="1.0" decel="5.0" sigma="0.0" length="4.5" maxSpeed="12.147713518189057" />
	<vType id="vType_car_44.0122624620075" accel="1.0" decel="5.0" sigma="0.0" length="4.5" maxSpeed="12.22562846166875" />
	<vType id="vType_car_15.758609151698387" accel="1.0" decel="5.0" sigma="0.0" length="4.5" maxSpeed="4.37739143102733" />
	<vType id="vType_car_3.5237321294047907" accel="1.0" decel="5.0" sigma="0.0" length="4.5" maxSpeed="0.9788144803902197" />
	<vType id="vType_car_2.9070790067589503" accel="1.0" decel="5.0" sigma="0.0" length="4.5" maxSpeed="0.8075219463219306" />
	<vType id="vType_car_5.554219988588902" accel="1.0" decel="5.0" sigma="0.0" length="4.5" maxSpeed="1.5428388857191395" />
	<vType id="vType_car_24.433918306398606" accel="1.0" decel="5.0" sigma="0.0" length="4.5" maxSpeed="6.787199529555168" />
	<vType id="vType_car_69.03359906750369" accel="1.0" decel="5.0" sigma="0.0" length="4.5" maxSpeed="19.175999740973246" />
	<vType id="vType_car_34.89997242690804" accel="1.0" decel="5.0" sigma="0.0" length="4.5" maxSpeed="9.694436785252234" />
	<vType id="vType_car_4.728647477875016" accel="1.0" decel="5.0" sigma="0.0" length="4.5" maxSpeed="1.3135131882986155" />
	<vType id="vType_car_13.331666333861001" accel="1.0" decel="5.0" sigma="0.0" length="4.5" maxSpeed="3.7032406482947224" />