<?xml version='1.0' encoding='utf-8'?>
<routes><vType id="vType_car_17.793944312337807" accel="1.0" decel="5.0" sigma="0.0" length="4.5" maxSpeed="4.942762308982724" /><vType id="vType_car_27.242351632506697" accel="1.0" decel="5.0" sigma="0.0" length="4.5" maxSpeed="7.5673198979185266" /><vType id="vType_car_8.732141783133196" accel="1.0" decel="5.0" sigma="0.0" length="4.5" maxSpeed="2.425594939759221" /><vType id="vType_car_10.671992110746997" accel="1.0" decel="5.0" sigma="0.0" length="4.5" maxSpeed="2.9644422529852767" /><vType id="vType_car_6.604447569345959" accel="1.0" decel="5.0" sigma="0.0" length="4.5" maxSpeed="1.8345687692627664" /><vType id="vType_car_7.1116284518858635" accel="1.0" decel="5.0" sigma="0.0" length="4.5" maxSpeed="1.975452347746073" /><vType id="vType_car_23.83483218387574" accel="1.0" decel="5.0" sigma="0.0" length="4.5" maxSpeed="6.620786717743261" /><vType id="vType_car_40.67106231515604" accel="1.0" decel="5.0" sigma="0.0" length="4.5" maxSpeed="11.297517309765567" /><vType id="vType_car_32.968635022077635" accel="1.0" decel="5.0" sigma="0.0" length="4.5" maxSpeed="9.157954172799343" /><vType id="vType_car_66.42779134514109" accel="1.0" decel="5.0" sigma="0.0" length="4.5" maxSpeed="18.452164262539192" /><vType id="vType_car_5.4650582829535646" accel="1.0" decel="5.0" sigma="0.0" length="4.5" maxSpeed="1.518071745264879" /><vType id="vType_car_68.11654772159639" accel="1.0" decel="5.0" sigma="0.0" length="4.5" maxSpeed="18.921263255998998" /><vType id="vType_car_94.18127206984776" accel="1.0" decel="5.0" sigma="0.0" length="4.5" maxSpeed="26.1614644638466" /><vType id="vType_car_20.836310279653404" accel="1.0" decel="5.0" sigma="0.0" length="4.5" maxSpeed="5.78786396657039" /><route id="route_north_to_east" edges="north_to_center center_to_east" /><route id="route_north_to_south" edges="north_to_center center_to_south" /><route id="route_north_to_west" edges="north_to_center center_to_west" /><route id="route_east_to_west" edges="east_to_center center_to_west" /><route id="route_east_to_south" edges="east_to_center center_to_south" /><route id="route_east_to_north" edges="east_to_center center_to_north" /><route id="route_south_to_west" edges="south_to_center center_to_west" /><route id="route_south_to_north" edges="south_to_center center_to_north" /><route id="route_south_to_east" edges="south_to_center center_to_east" /><route id="route_west_to_south" edges="west_to_center center_to_south" /><route id="route_west_to_north" edges="west_to_center center_to_north" /><route id="route_west_to_east" edges="west_to_center center_to_east" /><vehicle id="veh248" type="vType_car_17.793944312337807" route="route_west_to_east" depart="0.04" /><vehicle id="veh250" type="vType_car_27.242351632506697" route="route_north_to_west" depart="0.04" /><vehicle id="veh256" type="vType_car_23.83483218387574" route="route_west_to_east" depart="10.19" /><vehicle id="veh260" type="vType_car_40.67106231515604" route="route_east_to_west" depart="19.27" /><vehicle id="veh268" type="vType_car_68.11654772159639" route="route_west_to_east" depart="50.08" /></routes>