<?xml version='1.0' encoding='utf-8'?>
<routes><vType id="vType_car_7.917295822537188" accel="1.0" decel="5.0" sigma="0.0" length="4.5" maxSpeed="2.1992488395936634" /><vType id="vType_car_13.539834988841385" accel="1.0" decel="5.0" sigma="0.0" length="4.5" maxSpeed="3.7610652746781623" /><vType id="vType_car_26.21296401964171" accel="1.0" decel="5.0" sigma="0.0" length="4.5" maxSpeed="7.281378894344919" /><vType id="vType_car_8.886734137140454" accel="1.0" decel="5.0" sigma="0.0" length="4.5" maxSpeed="2.468537260316793" /><vType id="vType_car_5.016960890345194" accel="1.0" decel="5.0" sigma="0.0" length="4.5" maxSpeed="1.3936002473181095" /><vType id="vType_car_6.704279678589851" accel="1.0" decel="5.0" sigma="0.0" length="4.5" maxSpeed="1.862299910719403" /><vType id="vType_car_32.681402787616875" accel="1.0" decel="5.0" sigma="0.0" length="4.5" maxSpeed="9.078167441004688" /><vType id="vType_car_3.818507515198384" accel="1.0" decel="5.0" sigma="0.0" length="4.5" maxSpeed="1.060696531999551" /><vType id="vType_car_4.468352863713301" accel="1.0" decel="5.0" sigma="0.0" length="4.5" maxSpeed="1.2412091288092504" /><vType id="vType_car_13.904607373002804" accel="1.0" decel="5.0" sigma="0.0" length="4.5" maxSpeed="3.862390936945223" /><vType id="vType_car_23.171952103578136" accel="1.0" decel="5.0" sigma="0.0" length="4.5" maxSpeed="6.436653362105037" /><vType id="vType_car_14.42369500217551" accel="1.0" decel="5.0" sigma="0.0" length="4.5" maxSpeed="4.006581945048753" /><vType id="vType_car_1.5740162860020377" accel="1.0" decel="5.0" sigma="0.0" length="4.5" maxSpeed="0.4372267461116771" /><vType id="vType_car_33.91238771621626" accel="1.0" decel="5.0" sigma="0.0" length="4.5" maxSpeed="9.42010769894896" /><vType id="vType_car_14.786894878236277" accel="1.0" decel="5.0" sigma="0.0" length="4.5" maxSpeed="4.107470799510077" /><vType id="vType_car_3.643716010568503" accel="1.0" decel="5.0" sigma="0.0" length="4.5" maxSpeed="1.0121433362690286" /><vType id="vType_car_4.021631583305715" accel="1.0" decel="5.0" sigma="0.0" length="4.5" maxSpeed="1.1171198842515875" /><vType id="vType_car_3.6371354037148977" accel="1.0" decel="5.0" sigma="0.0" length="4.5" maxSpeed="1.0103153899208048" /><vType id="vType_car_4.0088420927077975" accel="1.0" decel="5.0" sigma="0.0" length="4.5" maxSpeed="1.113567247974388" /><vType id="vType_car_4.890133065945135" accel="1.0" decel="5.0" sigma="0.0" length="4.5" maxSpeed="1.3583702960958708" /><vType id="vType_car_37.845089263205224" accel="1.0" decel="5.0" sigma="0.0" length="4.5" maxSpeed="10.512524795334784" /><vType id="vType_car_8.848755821164204" accel="1.0" decel="5.0" sigma="0.0" length="4.5" maxSpeed="2.4579877281011675" /><vType id="vType_car_3.77763908640489" accel="1.0" decel="5.0" sigma="0.0" length="4.5" maxSpeed="1.049344190668025" /><vType id="vType_car_8.132940499830388" accel="1.0" decel="5.0" sigma="0.0" length="4.5" maxSpeed="2.2591501388417745" /><vType id="vType_car_22.220864149645447" accel="1.0" decel="5.0" sigma="0.0" length="4.5" maxSpeed="6.172462263790401" /><vType id="vType_car_4.060035323619014" accel="1.0" decel="5.0" sigma="0.0" length="4.5" maxSpeed="1.1277875898941707" /><vType id="vType_car_7.754572841652862" accel="1.0" decel="5.0" sigma="0.0" length="4.5" maxSpeed="2.1540480115702394" /><vType id="vType_car_16.102471520844272" accel="1.0" decel="5.0" sigma="0.0" length="4.5" maxSpeed="4.472908755790075" /><vType id="vType_car_21.719053755979697" accel="1.0" decel="5.0" sigma="0.0" length="4.5" maxSpeed="6.033070487772138" /><vType id="vType_car_6.218918044793614" accel="1.0" decel="5.0" sigma="0.0" length="4.5" maxSpeed="1.7274772346648926" /><vType id="vType_car_0.8394753525344202" accel="1.0" decel="5.0" sigma="0.0" length="4.5" maxSpeed="0.2331875979262278" /><vType id="vType_car_5.531083061958624" accel="1.0" decel="5.0" sigma="0.0" length="4.5" maxSpeed="1.5364119616551732" /><vType id="vType_car_3.795611810789477" accel="1.0" decel="5.0" sigma="0.0" length="4.5" maxSpeed="1.054336614108188" /><vType id="vType_car_20.90486135979147" accel="1.0" decel="5.0" sigma="0.0" length="4.5" maxSpeed="5.8069059332754085" /><vType id="vType_car_5.762372549146236" accel="1.0" decel="5.0" sigma="0.0" length="4.5" maxSpeed="1.6006590414295099" /><vType id="vType_car_27.842408510368173" accel="1.0" decel="5.0" sigma="0.0" length="4.5" maxSpeed="7.734002363991159" /><vType id="vType_car_5.348566391519452" accel="1.0" decel="5.0" sigma="0.0" length="4.5" maxSpeed="1.4857128865331812" /><vType id="vType_car_57.65485369746906" accel="1.0" decel="5.0" sigma="0.0" length="4.5" maxSpeed="16.01523713818585" /><vType id="vType_car_9.703176038651335" accel="1.0" decel="5.0" sigma="0.0" length="4.5" maxSpeed="2.695326677403149" /><vType id="vType_car_8.944224045131419" accel="1.0" decel="5.0" sigma="0.0" length="4.5" maxSpeed="2.484506679203172" /><vType id="vType_car_30.809224227512573" accel="1.0" decel="5.0" sigma="0.0" length="4.5" maxSpeed="8.558117840975715" /><vType id="vType_car_6.076190229475728" accel="1.0" decel="5.0" sigma="0.0" length="4.5" maxSpeed="1.6878306192988133" /><vType id="vType_car_12.224696878066428" accel="1.0" decel="5.0" sigma="0.0" length="4.5" maxSpeed="3.39574913279623" /><vType id="vType_car_8.107441529727103" accel="1.0" decel="5.0" sigma="0.0" length="4.5" maxSpeed="2.252067091590862" /><vType id="vType_car_34.604442152189364" accel="1.0" decel="5.0" sigma="0.0" length="4.5" maxSpeed="9.612345042274823" /><vType id="vType_car_10.482832738060008" accel="1.0" decel="5.0" sigma="0.0" length="4.5" maxSpeed="2.9118979827944464" /><vType id="vType_car_9.021293165322284" accel="1.0" decel="5.0" sigma="0.0" length="4.5" maxSpeed="2.505914768145079" /><vType id="vType_car_11.875709775804856" accel="1.0" decel="5.0" sigma="0.0" length="4.5" maxSpeed="3.298808271056904" /><vType id="vType_car_38.28043326080911" accel="1.0" decel="5.0" sigma="0.0" length="4.5" maxSpeed="10.633453683558086" /><vType id="vType_car_6.858095533597731" accel="1.0" decel="5.0" sigma="0.0" length="4.5" maxSpeed="1.9050265371104809" /><vType id="vType_car_6.937444410069848" accel="1.0" decel="5.0" sigma="0.0" length="4.5" maxSpeed="1.9270678916860686" /><vType id="vType_car_11.04230965503188" accel="1.0" decel="5.0" sigma="0.0" length="4.5" maxSpeed="3.067308237508856" /><vType id="vType_car_26.818114886747352" accel="1.0" decel="5.0" sigma="0.0" length="4.5" maxSpeed="7.44947635742982" /><vType id="vType_car_25.9622756196854" accel="1.0" decel="5.0" sigma="0.0" length="4.5" maxSpeed="7.211743227690389" /><vType id="vType_car_5.044753946672355" accel="1.0" decel="5.0" sigma="0.0" length="4.5" maxSpeed="1.4013205407423208" /><vType id="vType_car_68.94019143758565" accel="1.0" decel="5.0" sigma="0.0" length="4.5" maxSpeed="19.150053177107125" /><vType id="vType_car_5.467050644737197" accel="1.0" decel="5.0" sigma="0.0" length="4.5" maxSpeed="1.5186251790936658" /><route id="route_north_to_east" edges="north_to_center center_to_east" /><route id="route_north_to_south" edges="north_to_center center_to_south" /><route id="route_north_to_west" edges="north_to_center center_to_west" /><route id="route_east_to_west" edges="east_to_center center_to_west" /><route id="route_east_to_south" edges="east_to_center center_to_south" /><route id="route_east_to_north" edges="east_to_center center_to_north" /><route id="route_south_to_west" edges="south_to_center center_to_west" /><route id="route_south_to_north" edges="south_to_center center_to_north" /><route id="route_south_to_east" edges="south_to_center center_to_east" /><route id="route_west_to_south" edges="west_to_center center_to_south" /><route id="route_west_to_north" edges="west_to_center center_to_north" /><route id="route_west_to_east" edges="west_to_center center_to_east" /><vehicle id="veh957" type="vType_car_7.917295822537188" route="route_east_to_north" depart="0.03" /><vehicle id="veh961" type="vType_car_13.539834988841385" route="route_west_to_north" depart="0.03" /><vehicle id="veh943" type="vType_car_26.21296401964171" route="route_west_to_east" depart="0.03" /><vehicle id="veh970" type="vType_car_8.886734137140454" route="route_east_to_north" depart="0.03" /><vehicle id="veh1004" type="vType_car_32.681402787616875" route="route_north_to_west" depart="0.03" /><vehicle id="veh1007" type="vType_car_13.904607373002804" route="route_north_to_east" depart="0.13" /><vehicle id="veh1010" type="vType_car_23.171952103578136" route="route_north_to_west" depart="0.13" /><vehicle id="veh1012" type="vType_car_14.42369500217551" route="route_north_to_east" depart="0.13" /><vehicle id="veh1014" type="vType_car_33.91238771621626" route="route_south_to_north" depart="2.67" /><vehicle id="veh1015" type="vType_car_14.786894878236277" route="route_north_to_west" depart="3.70" /><vehicle id="veh1024" type="vType_car_37.845089263205224" route="route_south_to_west" depart="8.87" /><vehicle id="veh1025" type="vType_car_8.848755821164204" route="route_east_to_north" depart="10.07" /><vehicle id="veh1030" type="vType_car_22.220864149645447" route="route_north_to_west" depart="15.11" /><vehicle id="veh1035" type="vType_car_7.754572841652862" route="route_east_to_north" depart="16.44" /><vehicle id="veh1037" type="vType_car_16.102471520844272" route="route_east_to_west" depart="16.78" /><vehicle id="veh1038" type="vType_car_21.719053755979697" route="route_east_to_west" depart="19.88" /><vehicle id="veh1039" type="vType_car_6.218918044793614" route="route_east_to_north" depart="20.15" /><vehicle id="veh1045" type="vType_car_20.90486135979147" route="route_west_to_north" depart="22.41" /><vehicle id="veh1051" type="vType_car_27.842408510368173" route="route_west_to_north" depart="27.75" /><vehicle id="veh1056" type="vType_car_57.65485369746906" route="route_west_to_east" depart="29.49" /><vehicle id="veh1059" type="vType_car_9.703176038651335" route="route_east_to_north" depart="35.16" /><vehicle id="veh1061" type="vType_car_8.944224045131419" route="route_east_to_north" depart="37.09" /><vehicle id="veh1062" type="vType_car_30.809224227512573" route="route_east_to_west" depart="37.46" /><vehicle id="veh1066" type="vType_car_8.107441529727103" route="route_east_to_north" depart="39.89" /><vehicle id="veh1070" type="vType_car_34.604442152189364" route="route_east_to_west" depart="41.03" /><vehicle id="veh1071" type="vType_car_10.482832738060008" route="route_east_to_north" depart="43.09" /><vehicle id="veh1074" type="vType_car_9.021293165322284" route="route_east_to_north" depart="45.46" /><vehicle id="veh1075" type="vType_car_11.875709775804856" route="route_east_to_north" depart="47.86" /><vehicle id="veh1076" type="vType_car_38.28043326080911" route="route_east_to_west" depart="48.06" /></routes>