<?xml version='1.0' encoding='utf-8'?>
<routes><vType id="vType_car_15.636763251115262" accel="1.0" decel="5.0" sigma="0.0" length="4.5" maxSpeed="4.343545347532017" /><vType id="vType_car_15.794388074824365" accel="1.0" decel="5.0" sigma="0.0" length="4.5" maxSpeed="4.387330020784546" /><vType id="vType_car_22.811587861350567" accel="1.0" decel="5.0" sigma="0.0" length="4.5" maxSpeed="6.33655218370849" /><vType id="vType_car_21.513298634546533" accel="1.0" decel="5.0" sigma="0.0" length="4.5" maxSpeed="5.975916287374037" /><vType id="vType_car_16.593471066752965" accel="1.0" decel="5.0" sigma="0.0" length="4.5" maxSpeed="4.6092975185424905" /><vType id="vType_car_20.315250853394993" accel="1.0" decel="5.0" sigma="0.0" length="4.5" maxSpeed="5.643125237054164" /><vType id="vType_car_17.630310024758696" accel="1.0" decel="5.0" sigma="0.0" length="4.5" maxSpeed="4.897308340210749" /><vType id="vType_car_12.98150834551901" accel="1.0" decel="5.0" sigma="0.0" length="4.5" maxSpeed="3.6059745404219474" /><vType id="vType_car_23.241149705715273" accel="1.0" decel="5.0" sigma="0.0" length="4.5" maxSpeed="6.455874918254242" /><vType id="vType_car_73.39340384665543" accel="1.0" decel="5.0" sigma="0.0" length="4.5" maxSpeed="20.387056624070954" /><vType id="vType_car_17.33615855208933" accel="1.0" decel="5.0" sigma="0.0" length="4.5" maxSpeed="4.815599597802591" /><vType id="vType_car_16.906416632340356" accel="1.0" decel="5.0" sigma="0.0" length="4.5" maxSpeed="4.696226842316766" /><vType id="vType_car_21.219173167754438" accel="1.0" decel="5.0" sigma="0.0" length="4.5" maxSpeed="5.894214768820677" /><vType id="vType_car_9.47309686417388" accel="1.0" decel="5.0" sigma="0.0" length="4.5" maxSpeed="2.6314157956038557" /><vType id="vType_car_3.9383285040914258" accel="1.0" decel="5.0" sigma="0.0" length="4.5" maxSpeed="1.0939801400253961" /><vType id="vType_car_3.9459917720160083" accel="1.0" decel="5.0" sigma="0.0" length="4.5" maxSpeed="1.0961088255600022" /><vType id="vType_car_38.9779800242939" accel="1.0" decel="5.0" sigma="0.0" length="4.5" maxSpeed="10.827216673414972" /><vType id="vType_car_31.61341459149754" accel="1.0" decel="5.0" sigma="0.0" length="4.5" maxSpeed="8.78150405319376" /><vType id="vType_car_41.30525413450011" accel="1.0" decel="5.0" sigma="0.0" length="4.5" maxSpeed="11.473681704027808" /><vType id="vType_car_43.307993255167915" accel="1.0" decel="5.0" sigma="0.0" length="4.5" maxSpeed="12.029998126435531" /><vType id="vType_car_11.764821652262686" accel="1.0" decel="5.0" sigma="0.0" length="4.5" maxSpeed="3.268006014517413" /><vType id="vType_car_35.268360998182594" accel="1.0" decel="5.0" sigma="0.0" length="4.5" maxSpeed="9.796766943939609" /><vType id="vType_car_32.36859599351391" accel="1.0" decel="5.0" sigma="0.0" length="4.5" maxSpeed="8.991276664864975" /><vType id="vType_car_33.845560369656475" accel="1.0" decel="5.0" sigma="0.0" length="4.5" maxSpeed="9.401544547126798" /><vType id="vType_car_13.171623414550679" accel="1.0" decel="5.0" sigma="0.0" length="4.5" maxSpeed="3.6587842818196328" /><vType id="vType_car_0.34832913965800594" accel="1.0" decel="5.0" sigma="0.0" length="4.5" maxSpeed="0.09675809434944609" /><vType id="vType_car_13.182498699599948" accel="1.0" decel="5.0" sigma="0.0" length="4.5" maxSpeed="3.661805194333319" /><vType id="vType_car_39.66415207070725" accel="1.0" decel="5.0" sigma="0.0" length="4.5" maxSpeed="11.017820019640903" /><vType id="vType_car_39.19258812086786" accel="1.0" decel="5.0" sigma="0.0" length="4.5" maxSpeed="10.886830033574405" /><vType id="vType_car_37.845200663697156" accel="1.0" decel="5.0" sigma="0.0" length="4.5" maxSpeed="10.512555739915877" /><vType id="vType_car_40.55656215390944" accel="1.0" decel="5.0" sigma="0.0" length="4.5" maxSpeed="11.26571170941929" /><vType id="vType_car_3.4832913965800594" accel="1.0" decel="5.0" sigma="0.0" length="4.5" maxSpeed="0.9675809434944609" /><vType id="vType_car_42.43454126672479" accel="1.0" decel="5.0" sigma="0.0" length="4.5" maxSpeed="11.78737257409022" /><vType id="vType_car_3.843998031120304" accel="1.0" decel="5.0" sigma="0.0" length="4.5" maxSpeed="1.067777230866751" /><vType id="vType_car_26.917915637701313" accel="1.0" decel="5.0" sigma="0.0" length="4.5" maxSpeed="7.477198788250364" /><vType id="vType_car_10.378466442567984" accel="1.0" decel="5.0" sigma="0.0" length="4.5" maxSpeed="2.8829073451577734" /><vType id="vType_car_31.4742844174848" accel="1.0" decel="5.0" sigma="0.0" length="4.5" maxSpeed="8.742856782634666" /><vType id="vType_car_10.31459179771325" accel="1.0" decel="5.0" sigma="0.0" length="4.5" maxSpeed="2.8651643882536804" /><vType id="vType_car_39.359941864503" accel="1.0" decel="5.0" sigma="0.0" length="4.5" maxSpeed="10.933317184584167" /><vType id="vType_car_30.658437338258036" accel="1.0" decel="5.0" sigma="0.0" length="4.5" maxSpeed="8.516232593960565" /><vType id="vType_car_3.7718567042122553" accel="1.0" decel="5.0" sigma="0.0" length="4.5" maxSpeed="1.0477379733922931" /><vType id="vType_car_10.947609190917824" accel="1.0" decel="5.0" sigma="0.0" length="4.5" maxSpeed="3.0410025530327287" /><vType id="vType_car_44.7359881169994" accel="1.0" decel="5.0" sigma="0.0" length="4.5" maxSpeed="12.426663365833166" /><vType id="vType_car_7.682473715658235" accel="1.0" decel="5.0" sigma="0.0" length="4.5" maxSpeed="2.134020476571732" /><vType id="vType_car_5.705879274257082" accel="1.0" decel="5.0" sigma="0.0" length="4.5" maxSpeed="1.5849664650714117" /><vType id="vType_car_12.365398004750158" accel="1.0" decel="5.0" sigma="0.0" length="4.5" maxSpeed="3.434832779097266" /><vType id="vType_car_49.74592416130638" accel="1.0" decel="5.0" sigma="0.0" length="4.5" maxSpeed="13.81831226702955" /><vType id="vType_car_9.825827481008615" accel="1.0" decel="5.0" sigma="0.0" length="4.5" maxSpeed="2.729396522502393" /><vType id="vType_car_12.825637767009306" accel="1.0" decel="5.0" sigma="0.0" length="4.5" maxSpeed="3.562677157502585" /><vType id="vType_car_46.77777212011754" accel="1.0" decel="5.0" sigma="0.0" length="4.5" maxSpeed="12.993825588921538" /><vType id="vType_car_38.55940048878588" accel="1.0" decel="5.0" sigma="0.0" length="4.5" maxSpeed="10.710944580218301" /><vType id="vType_car_16.379666614557607" accel="1.0" decel="5.0" sigma="0.0" length="4.5" maxSpeed="4.549907392932669" /><vType id="vType_car_5.506879001433993" accel="1.0" decel="5.0" sigma="0.0" length="4.5" maxSpeed="1.5296886115094424" /><vType id="vType_car_40.44794758648172" accel="1.0" decel="5.0" sigma="0.0" length="4.5" maxSpeed="11.235540996244922" /><vType id="vType_car_50.06923432067308" accel="1.0" decel="5.0" sigma="0.0" length="4.5" maxSpeed="13.908120644631412" /><vType id="vType_car_27.4041632686054" accel="1.0" decel="5.0" sigma="0.0" length="4.5" maxSpeed="7.612267574612611" /><vType id="vType_car_16.511611187964323" accel="1.0" decel="5.0" sigma="0.0" length="4.5" maxSpeed="4.586558663323423" /><vType id="vType_car_56.428987132596504" accel="1.0" decel="5.0" sigma="0.0" length="4.5" maxSpeed="15.674718647943473" /><vType id="vType_car_51.250239378823316" accel="1.0" decel="5.0" sigma="0.0" length="4.5" maxSpeed="14.236177605228699" /><vType id="vType_car_9.776662741968803" accel="1.0" decel="5.0" sigma="0.0" length="4.5" maxSpeed="2.71573965054689" /><vType id="vType_car_27.594376971529243" accel="1.0" decel="5.0" sigma="0.0" length="4.5" maxSpeed="7.665104714313679" /><vType id="vType_car_15.04768978017147" accel="1.0" decel="5.0" sigma="0.0" length="4.5" maxSpeed="4.179913827825408" /><vType id="vType_car_29.143015598532553" accel="1.0" decel="5.0" sigma="0.0" length="4.5" maxSpeed="8.095282110703486" /><vType id="vType_car_17.279253043833037" accel="1.0" decel="5.0" sigma="0.0" length="4.5" maxSpeed="4.799792512175844" /><vType id="vType_car_1.0885285614312685" accel="1.0" decel="5.0" sigma="0.0" length="4.5" maxSpeed="0.30236904484201904" /><vType id="vType_car_19.96125024169349" accel="1.0" decel="5.0" sigma="0.0" length="4.5" maxSpeed="5.544791733803748" /><vType id="vType_car_31.447825719445355" accel="1.0" decel="5.0" sigma="0.0" length="4.5" maxSpeed="8.735507144290375" /><vType id="vType_car_19.906426001772147" accel="1.0" decel="5.0" sigma="0.0" length="4.5" maxSpeed="5.529562778270041" /><vType id="vType_car_23.54486703682437" accel="1.0" decel="5.0" sigma="0.0" length="4.5" maxSpeed="6.540240843562325" /><vType id="vType_car_34.914478080226736" accel="1.0" decel="5.0" sigma="0.0" length="4.5" maxSpeed="9.698466133396316" /><vType id="vType_car_6.643421615839724" accel="1.0" decel="5.0" sigma="0.0" length="4.5" maxSpeed="1.8453948932888122" /><vType id="vType_car_51.91167039543238" accel="1.0" decel="5.0" sigma="0.0" length="4.5" maxSpeed="14.419908443175661" /><vType id="vType_car_16.185509806994606" accel="1.0" decel="5.0" sigma="0.0" length="4.5" maxSpeed="4.49597494638739" /><vType id="vType_car_51.67454812989907" accel="1.0" decel="5.0" sigma="0.0" length="4.5" maxSpeed="14.354041147194186" /><vType id="vType_car_15.899968928262163" accel="1.0" decel="5.0" sigma="0.0" length="4.5" maxSpeed="4.416658035628378" /><vType id="vType_car_33.8039557037268" accel="1.0" decel="5.0" sigma="0.0" length="4.5" maxSpeed="9.389987695479666" /><vType id="vType_car_9.86591333017403" accel="1.0" decel="5.0" sigma="0.0" length="4.5" maxSpeed="2.740531480603897" /><vType id="vType_truck_88.90340175589157" accel="1.0" decel="5.0" sigma="0.0" length="8" maxSpeed="24.695389376636545" /><vType id="vType_car_15.503289739472024" accel="1.0" decel="5.0" sigma="0.0" length="4.5" maxSpeed="4.306469372075562" /><vType id="vType_car_45.14492847280536" accel="1.0" decel="5.0" sigma="0.0" length="4.5" maxSpeed="12.5402579091126" /><vType id="vType_car_19.698142513535373" accel="1.0" decel="5.0" sigma="0.0" length="4.5" maxSpeed="5.471706253759826" /><vType id="vType_car_10.662616086822897" accel="1.0" decel="5.0" sigma="0.0" length="4.5" maxSpeed="2.9618378018952494" /><vType id="vType_car_10.750451310820482" accel="1.0" decel="5.0" sigma="0.0" length="4.5" maxSpeed="2.9862364752279116" /><vType id="vType_car_21.134336822958915" accel="1.0" decel="5.0" sigma="0.0" length="4.5" maxSpeed="5.870649117488587" /><vType id="vType_car_9.112513180658363" accel="1.0" decel="5.0" sigma="0.0" length="4.5" maxSpeed="2.5312536612939898" /><vType id="vType_car_90.31949168614123" accel="1.0" decel="5.0" sigma="0.0" length="4.5" maxSpeed="25.088747690594786" /><vType id="vType_car_28.471228986307015" accel="1.0" decel="5.0" sigma="0.0" length="4.5" maxSpeed="7.908674718418615" /><vType id="vType_car_11.733089016581168" accel="1.0" decel="5.0" sigma="0.0" length="4.5" maxSpeed="3.2591913934947687" /><vType id="vType_car_96.90435193459098" accel="1.0" decel="5.0" sigma="0.0" length="4.5" maxSpeed="26.917875537386383" /><vType id="vType_car_45.58688080725877" accel="1.0" decel="5.0" sigma="0.0" length="4.5" maxSpeed="12.66302244646077" /><vType id="vType_car_7.146494255416215" accel="1.0" decel="5.0" sigma="0.0" length="4.5" maxSpeed="1.9851372931711708" /><vType id="vType_car_56.595226208007745" accel="1.0" decel="5.0" sigma="0.0" length="4.5" maxSpeed="15.72089616889104" /><vType id="vType_car_8.714735431683373" accel="1.0" decel="5.0" sigma="0.0" length="4.5" maxSpeed="2.42075984213427" /><vType id="vType_car_62.44243711088251" accel="1.0" decel="5.0" sigma="0.0" length="4.5" maxSpeed="17.345121419689587" /><vType id="vType_car_10.527373772032979" accel="1.0" decel="5.0" sigma="0.0" length="4.5" maxSpeed="2.924270492231383" /><vType id="vType_car_8.813146242945201" accel="1.0" decel="5.0" sigma="0.0" length="4.5" maxSpeed="2.4480961785958892" /><vType id="vType_car_8.962424154072888" accel="1.0" decel="5.0" sigma="0.0" length="4.5" maxSpeed="2.4895622650202465" /><vType id="vType_car_11.75120542179527" accel="1.0" decel="5.0" sigma="0.0" length="4.5" maxSpeed="3.2642237282764635" /><vType id="vType_car_8.646087276409858" accel="1.0" decel="5.0" sigma="0.0" length="4.5" maxSpeed="2.4016909101138495" /><vType id="vType_car_62.22040290390975" accel="1.0" decel="5.0" sigma="0.0" length="4.5" maxSpeed="17.283445251086043" /><vType id="vType_car_4.115260893959385" accel="1.0" decel="5.0" sigma="0.0" length="4.5" maxSpeed="1.143128026099829" /><vType id="vType_car_49.80893064481234" accel="1.0" decel="5.0" sigma="0.0" length="4.5" maxSpeed="13.835814068003428" /><vType id="vType_car_58.843207151600595" accel="1.0" decel="5.0" sigma="0.0" length="4.5" maxSpeed="16.345335319889053" /><vType id="vType_car_4.947283516229406" accel="1.0" decel="5.0" sigma="0.0" length="4.5" maxSpeed="1.3742454211748352" /><vType id="vType_car_49.23823993503763" accel="1.0" decel="5.0" sigma="0.0" length="4.5" maxSpeed="13.677288870843787" /><vType id="vType_car_4.9611893818239166" accel="1.0" decel="5.0" sigma="0.0" length="4.5" maxSpeed="1.3781081616177546" /><vType id="vType_car_58.56893198054724" accel="1.0" decel="5.0" sigma="0.0" length="4.5" maxSpeed="16.269147772374232" /><vType id="vType_car_25.11934595610984" accel="1.0" decel="5.0" sigma="0.0" length="4.5" maxSpeed="6.9775960989194" /><vType id="vType_car_3.9138558638170267" accel="1.0" decel="5.0" sigma="0.0" length="4.5" maxSpeed="1.0871821843936185" /><vType id="vType_car_47.3314900541119" accel="1.0" decel="5.0" sigma="0.0" length="4.5" maxSpeed="13.147636126142196" /><vType id="vType_car_3.48329139658006" accel="1.0" decel="5.0" sigma="0.0" length="4.5" maxSpeed="0.967580943494461" /><vType id="vType_car_2.4585495762763108" accel="1.0" decel="5.0" sigma="0.0" length="4.5" maxSpeed="0.6829304378545308" /><vType id="vType_car_10.571851112729984" accel="1.0" decel="5.0" sigma="0.0" length="4.5" maxSpeed="2.9366253090916623" /><vType id="vType_car_61.568631209410256" accel="1.0" decel="5.0" sigma="0.0" length="4.5" maxSpeed="17.102397558169514" /><vType id="vType_car_50.14460800488945" accel="1.0" decel="5.0" sigma="0.0" length="4.5" maxSpeed="13.929057779135958" /><vType id="vType_car_12.149511808145533" accel="1.0" decel="5.0" sigma="0.0" length="4.5" maxSpeed="3.374864391151537" /><vType id="vType_car_0.12011349643379514" accel="1.0" decel="5.0" sigma="0.0" length="4.5" maxSpeed="0.03336486012049865" /><vType id="vType_car_3.950232134989592" accel="1.0" decel="5.0" sigma="0.0" length="4.5" maxSpeed="1.0972867041637755" /><vType id="vType_car_12.542365228399563" accel="1.0" decel="5.0" sigma="0.0" length="4.5" maxSpeed="3.4839903412221007" /><vType id="vType_car_1.8867828398141988" accel="1.0" decel="5.0" sigma="0.0" length="4.5" maxSpeed="0.524106344392833" /><vType id="vType_car_60.346483537406975" accel="1.0" decel="5.0" sigma="0.0" length="4.5" maxSpeed="16.76291209372416" /><vType id="vType_car_3.3381542550558905" accel="1.0" decel="5.0" sigma="0.0" length="4.5" maxSpeed="0.9272650708488585" /><vType id="vType_car_54.84517050429911" accel="1.0" decel="5.0" sigma="0.0" length="4.5" maxSpeed="15.23476958452753" /><vType id="vType_car_10.222040538915515" accel="1.0" decel="5.0" sigma="0.0" length="4.5" maxSpeed="2.8394557052543097" /><vType id="vType_truck_9.191446771403431" accel="1.0" decel="5.0" sigma="0.0" length="8" maxSpeed="2.553179658723175" /><vType id="vType_car_4.073867600697524" accel="1.0" decel="5.0" sigma="0.0" length="4.5" maxSpeed="1.1316298890826455" /><vType id="vType_bus_51.85592943460267" accel="1.0" decel="5.0" sigma="0.0" length="13" maxSpeed="14.404424842945186" /><vType id="vType_car_3.228233289277674" accel="1.0" decel="5.0" sigma="0.0" length="4.5" maxSpeed="0.8967314692437983" /><vType id="vType_car_45.79172333851003" accel="1.0" decel="5.0" sigma="0.0" length="4.5" maxSpeed="12.71992314958612" /><vType id="vType_car_3.210092071358094" accel="1.0" decel="5.0" sigma="0.0" length="4.5" maxSpeed="0.891692242043915" /><vType id="vType_car_16.074729130121508" accel="1.0" decel="5.0" sigma="0.0" length="4.5" maxSpeed="4.465202536144863" /><vType id="vType_car_54.826932363727714" accel="1.0" decel="5.0" sigma="0.0" length="4.5" maxSpeed="15.229703434368808" /><vType id="vType_car_60.461834028552424" accel="1.0" decel="5.0" sigma="0.0" length="4.5" maxSpeed="16.794953896820118" /><vType id="vType_car_46.180062155475525" accel="1.0" decel="5.0" sigma="0.0" length="4.5" maxSpeed="12.827795043187646" /><vType id="vType_car_17.86641644282634" accel="1.0" decel="5.0" sigma="0.0" length="4.5" maxSpeed="4.962893456340649" /><vType id="vType_car_3.652849695309782" accel="1.0" decel="5.0" sigma="0.0" length="4.5" maxSpeed="1.014680470919384" /><vType id="vType_car_1.4564719167697293" accel="1.0" decel="5.0" sigma="0.0" length="4.5" maxSpeed="0.4045755324360359" /><vType id="vType_car_29.8285062649973" accel="1.0" decel="5.0" sigma="0.0" length="4.5" maxSpeed="8.285696184721472" /><vType id="vType_car_2.995467548914254" accel="1.0" decel="5.0" sigma="0.0" length="4.5" maxSpeed="0.8320743191428484" /><vType id="vType_car_5.259351153864672" accel="1.0" decel="5.0" sigma="0.0" length="4.5" maxSpeed="1.46093087607352" /><vType id="vType_car_14.762945324489081" accel="1.0" decel="5.0" sigma="0.0" length="4.5" maxSpeed="4.100818145691411" /><vType id="vType_car_44.353105871314774" accel="1.0" decel="5.0" sigma="0.0" length="4.5" maxSpeed="12.320307186476326" /><vType id="vType_car_23.62768864144307" accel="1.0" decel="5.0" sigma="0.0" length="4.5" maxSpeed="6.563246844845296" /><vType id="vType_car_2.35122169269154" accel="1.0" decel="5.0" sigma="0.0" length="4.5" maxSpeed="0.653117136858761" /><vType id="vType_car_15.716923671089571" accel="1.0" decel="5.0" sigma="0.0" length="4.5" maxSpeed="4.365812130858214" /><vType id="vType_car_12.919508277664836" accel="1.0" decel="5.0" sigma="0.0" length="4.5" maxSpeed="3.588752299351343" /><vType id="vType_car_13.276394786654231" accel="1.0" decel="5.0" sigma="0.0" length="4.5" maxSpeed="3.6878874407372866" /><vType id="vType_car_19.099992991140837" accel="1.0" decel="5.0" sigma="0.0" length="4.5" maxSpeed="5.305553608650232" /><vType id="vType_car_20.008862173407465" accel="1.0" decel="5.0" sigma="0.0" length="4.5" maxSpeed="5.5580172703909625" /><vType id="vType_car_20.302805165418015" accel="1.0" decel="5.0" sigma="0.0" length="4.5" maxSpeed="5.639668101505004" /><vType id="vType_car_2.9424106442279117" accel="1.0" decel="5.0" sigma="0.0" length="4.5" maxSpeed="0.8173362900633088" /><vType id="vType_car_17.470441314829287" accel="1.0" decel="5.0" sigma="0.0" length="4.5" maxSpeed="4.852900365230357" /><vType id="vType_car_13.396649813765261" accel="1.0" decel="5.0" sigma="0.0" length="4.5" maxSpeed="3.7212916149347945" /><vType id="vType_car_0.2380249120996374" accel="1.0" decel="5.0" sigma="0.0" length="4.5" maxSpeed="0.06611803113878816" /><vType id="vType_car_20.63043436397429" accel="1.0" decel="5.0" sigma="0.0" length="4.5" maxSpeed="5.730676212215081" /><vType id="vType_car_3.8316205362380655" accel="1.0" decel="5.0" sigma="0.0" length="4.5" maxSpeed="1.064339037843907" /><vType id="vType_car_3.4832913965800585" accel="1.0" decel="5.0" sigma="0.0" length="4.5" maxSpeed="0.9675809434944607" /><vType id="vType_car_1.821802728187862" accel="1.0" decel="5.0" sigma="0.0" length="4.5" maxSpeed="0.5060563133855172" /><vType id="vType_car_2.999500924832829" accel="1.0" decel="5.0" sigma="0.0" length="4.5" maxSpeed="0.8331947013424524" /><vType id="vType_car_4.204704665660549" accel="1.0" decel="5.0" sigma="0.0" length="4.5" maxSpeed="1.1679735182390414" /><vType id="vType_car_16.35604087041486" accel="1.0" decel="5.0" sigma="0.0" length="4.5" maxSpeed="4.54334468622635" /><vType id="vType_car_15.012370267962588" accel="1.0" decel="5.0" sigma="0.0" length="4.5" maxSpeed="4.17010285221183" /><vType id="vType_car_0.4354114245725074" accel="1.0" decel="5.0" sigma="0.0" length="4.5" maxSpeed="0.12094761793680761" /><vType id="vType_car_16.019890128359382" accel="1.0" decel="5.0" sigma="0.0" length="4.5" maxSpeed="4.449969480099829" /><vType id="vType_car_16.716542520062774" accel="1.0" decel="5.0" sigma="0.0" length="4.5" maxSpeed="4.64348403335077" /><vType id="vType_car_19.84638050720141" accel="1.0" decel="5.0" sigma="0.0" length="4.5" maxSpeed="5.512883474222614" /><vType id="vType_car_13.737599195636065" accel="1.0" decel="5.0" sigma="0.0" length="4.5" maxSpeed="3.8159997765655733" /><vType id="vType_car_21.64883886020716" accel="1.0" decel="5.0" sigma="0.0" length="4.5" maxSpeed="6.013566350057545" /><vType id="vType_car_15.6961264612103" accel="1.0" decel="5.0" sigma="0.0" length="4.5" maxSpeed="4.360035128113972" /><vType id="vType_car_20.357291646566225" accel="1.0" decel="5.0" sigma="0.0" length="4.5" maxSpeed="5.654803235157284" /><vType id="vType_car_19.652287329764256" accel="1.0" decel="5.0" sigma="0.0" length="4.5" maxSpeed="5.458968702712293" /><vType id="vType_car_3.9404700463307063" accel="1.0" decel="5.0" sigma="0.0" length="4.5" maxSpeed="1.0945750128696405" /><vType id="vType_car_24.78926499553618" accel="1.0" decel="5.0" sigma="0.0" length="4.5" maxSpeed="6.885906943204494" /><vType id="vType_truck_36.6883904081581" accel="1.0" decel="5.0" sigma="0.0" length="8" maxSpeed="10.191219557821695" /><vType id="vType_car_28.42634966295274" accel="1.0" decel="5.0" sigma="0.0" length="4.5" maxSpeed="7.896208239709095" /><vType id="vType_car_19.202237073504318" accel="1.0" decel="5.0" sigma="0.0" length="4.5" maxSpeed="5.333954742640088" /><vType id="vType_car_7.285545957511206" accel="1.0" decel="5.0" sigma="0.0" length="4.5" maxSpeed="2.023762765975335" /><vType id="vType_car_26.971151019951336" accel="1.0" decel="5.0" sigma="0.0" length="4.5" maxSpeed="7.491986394430926" /><vType id="vType_car_30.714371288479324" accel="1.0" decel="5.0" sigma="0.0" length="4.5" maxSpeed="8.531769802355367" /><vType id="vType_car_3.36933429116633" accel="1.0" decel="5.0" sigma="0.0" length="4.5" maxSpeed="0.9359261919906472" /><vType id="vType_car_18.852938678310977" accel="1.0" decel="5.0" sigma="0.0" length="4.5" maxSpeed="5.236927410641938" /><vType id="vType_truck_66.6847913429561" accel="1.0" decel="5.0" sigma="0.0" length="8" maxSpeed="18.52355315082114" /><vType id="vType_car_28.300332548467395" accel="1.0" decel="5.0" sigma="0.0" length="4.5" maxSpeed="7.861203485685388" /><vType id="vType_car_27.993018331720222" accel="1.0" decel="5.0" sigma="0.0" length="4.5" maxSpeed="7.775838425477839" /><vType id="vType_car_21.726762445836727" accel="1.0" decel="5.0" sigma="0.0" length="4.5" maxSpeed="6.035211790510202" /><vType id="vType_car_17.56784080626703" accel="1.0" decel="5.0" sigma="0.0" length="4.5" maxSpeed="4.879955779518619" /><vType id="vType_car_17.498715034226315" accel="1.0" decel="5.0" sigma="0.0" length="4.5" maxSpeed="4.860754176173976" /><vType id="vType_car_33.928749597045766" accel="1.0" decel="5.0" sigma="0.0" length="4.5" maxSpeed="9.424652665846045" /><vType id="vType_car_26.183633072064133" accel="1.0" decel="5.0" sigma="0.0" length="4.5" maxSpeed="7.273231408906703" /><vType id="vType_car_24.9244040202383" accel="1.0" decel="5.0" sigma="0.0" length="4.5" maxSpeed="6.923445561177305" /><vType id="vType_car_3.061563632937388" accel="1.0" decel="5.0" sigma="0.0" length="4.5" maxSpeed="0.8504343424826077" /><vType id="vType_car_30.970811013408802" accel="1.0" decel="5.0" sigma="0.0" length="4.5" maxSpeed="8.603003059280223" /><vType id="vType_car_47.96455304112897" accel="1.0" decel="5.0" sigma="0.0" length="4.5" maxSpeed="13.323486955869159" /><vType id="vType_car_28.482438365962338" accel="1.0" decel="5.0" sigma="0.0" length="4.5" maxSpeed="7.911788434989538" /><vType id="vType_car_21.991475655735865" accel="1.0" decel="5.0" sigma="0.0" length="4.5" maxSpeed="6.108743237704407" /><vType id="vType_car_29.815666674975898" accel="1.0" decel="5.0" sigma="0.0" length="4.5" maxSpeed="8.28212963193775" /><vType id="vType_car_40.07556768301109" accel="1.0" decel="5.0" sigma="0.0" length="4.5" maxSpeed="11.132102134169747" /><vType id="vType_car_8.017173645419998" accel="1.0" decel="5.0" sigma="0.0" length="4.5" maxSpeed="2.2269926792833328" /><vType id="vType_car_6.966582793160118" accel="1.0" decel="5.0" sigma="0.0" length="4.5" maxSpeed="1.9351618869889216" /><vType id="vType_car_8.29486147621506" accel="1.0" decel="5.0" sigma="0.0" length="4.5" maxSpeed="2.3041281878375166" /><vType id="vType_car_19.9519932195093" accel="1.0" decel="5.0" sigma="0.0" length="4.5" maxSpeed="5.542220338752584" /><vType id="vType_car_25.625010140770794" accel="1.0" decel="5.0" sigma="0.0" length="4.5" maxSpeed="7.118058372436331" /><vType id="vType_car_4.166622603274811" accel="1.0" decel="5.0" sigma="0.0" length="4.5" maxSpeed="1.1573951675763363" /><vType id="vType_car_17.21289557995218" accel="1.0" decel="5.0" sigma="0.0" length="4.5" maxSpeed="4.781359883320049" /><vType id="vType_car_23.19627810987758" accel="1.0" decel="5.0" sigma="0.0" length="4.5" maxSpeed="6.443410586077105" /><vType id="vType_car_36.4723392436088" accel="1.0" decel="5.0" sigma="0.0" length="4.5" maxSpeed="10.131205345446888" /><vType id="vType_car_10.92677668172567" accel="1.0" decel="5.0" sigma="0.0" length="4.5" maxSpeed="3.0352157449237973" /><vType id="vType_car_34.839751276676125" accel="1.0" decel="5.0" sigma="0.0" length="4.5" maxSpeed="9.67770868796559" /><vType id="vType_car_40.03614521423498" accel="1.0" decel="5.0" sigma="0.0" length="4.5" maxSpeed="11.121151448398605" /><vType id="vType_car_11.093709013539172" accel="1.0" decel="5.0" sigma="0.0" length="4.5" maxSpeed="3.0815858370942144" /><vType id="vType_car_13.770538432606665" accel="1.0" decel="5.0" sigma="0.0" length="4.5" maxSpeed="3.8251495646129623" /><vType id="vType_car_40.396135198913775" accel="1.0" decel="5.0" sigma="0.0" length="4.5" maxSpeed="11.221148666364938" /><vType id="vType_car_14.553363490317464" accel="1.0" decel="5.0" sigma="0.0" length="4.5" maxSpeed="4.042600969532629" /><vType id="vType_car_11.986418965365063" accel="1.0" decel="5.0" sigma="0.0" length="4.5" maxSpeed="3.3295608237125176" /><vType id="vType_car_47.47315011139784" accel="1.0" decel="5.0" sigma="0.0" length="4.5" maxSpeed="13.186986142054955" /><vType id="vType_car_46.99143916414873" accel="1.0" decel="5.0" sigma="0.0" length="4.5" maxSpeed="13.053177545596869" /><vType id="vType_car_11.115770565895504" accel="1.0" decel="5.0" sigma="0.0" length="4.5" maxSpeed="3.0877140460820844" /><vType id="vType_car_56.44703713936694" accel="1.0" decel="5.0" sigma="0.0" length="4.5" maxSpeed="15.679732538713038" /><vType id="vType_car_20.985670738016456" accel="1.0" decel="5.0" sigma="0.0" length="4.5" maxSpeed="5.829352982782349" /><vType id="vType_car_37.96928164626621" accel="1.0" decel="5.0" sigma="0.0" length="4.5" maxSpeed="10.547022679518392" /><vType id="vType_car_106.27209130364092" accel="1.0" decel="5.0" sigma="0.0" length="4.5" maxSpeed="29.520025362122478" /><vType id="vType_car_43.86749790580235" accel="1.0" decel="5.0" sigma="0.0" length="4.5" maxSpeed="12.185416084945098" /><vType id="vType_car_15.863678027087264" accel="1.0" decel="5.0" sigma="0.0" length="4.5" maxSpeed="4.406577229746462" /><vType id="vType_car_10.205809023818032" accel="1.0" decel="5.0" sigma="0.0" length="4.5" maxSpeed="2.8349469510605645" /><vType id="vType_car_11.722271103804646" accel="1.0" decel="5.0" sigma="0.0" length="4.5" maxSpeed="3.2561864177235127" /><vType id="vType_car_8.851800296407303" accel="1.0" decel="5.0" sigma="0.0" length="4.5" maxSpeed="2.4588334156686953" /><vType id="vType_car_33.848729903597665" accel="1.0" decel="5.0" sigma="0.0" length="4.5" maxSpeed="9.402424973221573" /><vType id="vType_car_39.839806607358" accel="1.0" decel="5.0" sigma="0.0" length="4.5" maxSpeed="11.066612946488332" /><vType id="vType_car_37.62309625753335" accel="1.0" decel="5.0" sigma="0.0" length="4.5" maxSpeed="10.450860071537042" /><vType id="vType_car_19.92159384469586" accel="1.0" decel="5.0" sigma="0.0" length="4.5" maxSpeed="5.533776067971072" /><vType id="vType_car_41.56563859815525" accel="1.0" decel="5.0" sigma="0.0" length="4.5" maxSpeed="11.546010721709793" /><vType id="vType_car_65.60104194866463" accel="1.0" decel="5.0" sigma="0.0" length="4.5" maxSpeed="18.22251165240684" /><vType id="vType_car_12.978966645683208" accel="1.0" decel="5.0" sigma="0.0" length="4.5" maxSpeed="3.60526851268978" /><vType id="vType_car_15.42145683620272" accel="1.0" decel="5.0" sigma="0.0" length="4.5" maxSpeed="4.283738010056311" /><vType id="vType_car_49.50210208677381" accel="1.0" decel="5.0" sigma="0.0" length="4.5" maxSpeed="13.750583912992724" /><vType id="vType_car_21.68993764006225" accel="1.0" decel="5.0" sigma="0.0" length="4.5" maxSpeed="6.0249826777950695" /><vType id="vType_truck_3.4832913965800594" accel="1.0" decel="5.0" sigma="0.0" length="8" maxSpeed="0.9675809434944609" /><vType id="vType_car_12.905293726317767" accel="1.0" decel="5.0" sigma="0.0" length="4.5" maxSpeed="3.5848038128660464" /><vType id="vType_car_19.659988505374205" accel="1.0" decel="5.0" sigma="0.0" length="4.5" maxSpeed="5.4611079181595015" /><vType id="vType_car_52.0198756582104" accel="1.0" decel="5.0" sigma="0.0" length="4.5" maxSpeed="14.449965460614001" /><vType id="vType_car_5.810807500325756" accel="1.0" decel="5.0" sigma="0.0" length="4.5" maxSpeed="1.6141131945349323" /><vType id="vType_car_11.959829099214554" accel="1.0" decel="5.0" sigma="0.0" length="4.5" maxSpeed="3.3221747497818206" /><vType id="vType_car_23.27007055108568" accel="1.0" decel="5.0" sigma="0.0" length="4.5" maxSpeed="6.463908486412689" /><vType id="vType_car_22.96670345090781" accel="1.0" decel="5.0" sigma="0.0" length="4.5" maxSpeed="6.379639847474392" /><vType id="vType_car_38.00239982619701" accel="1.0" decel="5.0" sigma="0.0" length="4.5" maxSpeed="10.556222173943615" /><vType id="vType_car_5.372870197024192" accel="1.0" decel="5.0" sigma="0.0" length="4.5" maxSpeed="1.492463943617831" /><vType id="vType_car_6.4500008876844594" accel="1.0" decel="5.0" sigma="0.0" length="4.5" maxSpeed="1.791666913245683" /><vType id="vType_car_5.945010101819296" accel="1.0" decel="5.0" sigma="0.0" length="4.5" maxSpeed="