<?xml version='1.0' encoding='utf-8'?>
<routes><vType id="vType_car_39.27590831627839" accel="1.0" decel="5.0" sigma="0.0" length="4.5" maxSpeed="10.909974532299552" /><vType id="vType_car_36.38590332784451" accel="1.0" decel="5.0" sigma="0.0" length="4.5" maxSpeed="10.107195368845696" /><vType id="vType_car_32.034473668970975" accel="1.0" decel="5.0" sigma="0.0" length="4.5" maxSpeed="8.898464908047492" /><vType id="vType_car_34.26318124751552" accel="1.0" decel="5.0" sigma="0.0" length="4.5" maxSpeed="9.517550346532088" /><vType id="vType_car_40.40215172659106" accel="1.0" decel="5.0" sigma="0.0" length="4.5" maxSpeed="11.222819924053072" /><vType id="vType_car_10.772429975646347" accel="1.0" decel="5.0" sigma="0.0" length="4.5" maxSpeed="2.9923416599017627" /><vType id="vType_car_16.851463668349542" accel="1.0" decel="5.0" sigma="0.0" length="4.5" maxSpeed="4.680962130097095" /><vType id="vType_car_10.235235948610105" accel="1.0" decel="5.0" sigma="0.0" length="4.5" maxSpeed="2.8431210968361404" /><vType id="vType_car_5.8776413633638285" accel="1.0" decel="5.0" sigma="0.0" length="4.5" maxSpeed="1.6326781564899524" /><vType id="vType_car_7.99799534957171" accel="1.0" decel="5.0" sigma="0.0" length="4.5" maxSpeed="2.2216653748810304" /><vType id="vType_car_20.03671021425108" accel="1.0" decel="5.0" sigma="0.0" length="4.5" maxSpeed="5.565752837291966" /><vType id="vType_car_3.7858393697260646" accel="1.0" decel="5.0" sigma="0.0" length="4.5" maxSpeed="1.051622047146129" /><vType id="vType_car_18.383211119408987" accel="1.0" decel="5.0" sigma="0.0" length="4.5" maxSpeed="5.106447533169163" /><vType id="vType_car_13.584259443661304" accel="1.0" decel="5.0" sigma="0.0" length="4.5" maxSpeed="3.773405401017029" /><vType id="vType_car_14.614400202172558" accel="1.0" decel="5.0" sigma="0.0" length="4.5" maxSpeed="4.059555611714599" /><vType id="vType_car_6.655681545642843" accel="1.0" decel="5.0" sigma="0.0" length="4.5" maxSpeed="1.8488004293452343" /><vType id="vType_car_5.262379633999251" accel="1.0" decel="5.0" sigma="0.0" length="4.5" maxSpeed="1.4617721205553473" /><vType id="vType_car_76.6324107247613" accel="1.0" decel="5.0" sigma="0.0" length="4.5" maxSpeed="21.286780756878137" /><vType id="vType_car_7.6975035371187035" accel="1.0" decel="5.0" sigma="0.0" length="4.5" maxSpeed="2.1381954269774175" /><vType id="vType_car_45.41656330121284" accel="1.0" decel="5.0" sigma="0.0" length="4.5" maxSpeed="12.615712028114677" /><vType id="vType_car_70.53127512621865" accel="1.0" decel="5.0" sigma="0.0" length="4.5" maxSpeed="19.59202086839407" /><vType id="vType_car_9.852235869482078" accel="1.0" decel="5.0" sigma="0.0" length="4.5" maxSpeed="2.7367321859672438" /><vType id="vType_car_37.677557213255916" accel="1.0" decel="5.0" sigma="0.0" length="4.5" maxSpeed="10.46598811479331" /><vType id="vType_car_6.966582793160119" accel="1.0" decel="5.0" sigma="0.0" length="4.5" maxSpeed="1.9351618869889218" /><vType id="vType_car_59.32035392842031" accel="1.0" decel="5.0" sigma="0.0" length="4.5" maxSpeed="16.477876091227863" /><vType id="vType_car_19.178430452135824" accel="1.0" decel="5.0" sigma="0.0" length="4.5" maxSpeed="5.3273417922599515" /><vType id="vType_car_17.79587725820229" accel="1.0" decel="5.0" sigma="0.0" length="4.5" maxSpeed="4.943299238389525" /><vType id="vType_car_32.45847899058915" accel="1.0" decel="5.0" sigma="0.0" length="4.5" maxSpeed="9.01624416405254" /><vType id="vType_truck_65.46782305552753" accel="1.0" decel="5.0" sigma="0.0" length="8" maxSpeed="18.1855064043132" /><vType id="vType_car_70.71450780768458" accel="1.0" decel="5.0" sigma="0.0" length="4.5" maxSpeed="19.64291883546794" /><vType id="vType_car_9.819656861014902" accel="1.0" decel="5.0" sigma="0.0" length="4.5" maxSpeed="2.7276824613930284" /><vType id="vType_car_6.33380737442933" accel="1.0" decel="5.0" sigma="0.0" length="4.5" maxSpeed="1.7593909373414807" /><vType id="vType_car_11.391036840712378" accel="1.0" decel="5.0" sigma="0.0" length="4.5" maxSpeed="3.164176900197883" /><vType id="vType_car_107.12216445538027" accel="1.0" decel="5.0" sigma="0.0" length="4.5" maxSpeed="29.756156793161185" /><vType id="vType_car_10.253241720177915" accel="1.0" decel="5.0" sigma="0.0" length="4.5" maxSpeed="2.8481227000494207" /><vType id="vType_car_56.166386103318516" accel="1.0" decel="5.0" sigma="0.0" length="4.5" maxSpeed="15.601773917588476" /><vType id="vType_car_75.08950284908141" accel="1.0" decel="5.0" sigma="0.0" length="4.5" maxSpeed="20.85819523585595" /><vType id="vType_car_49.87314292748327" accel="1.0" decel="5.0" sigma="0.0" length="4.5" maxSpeed="13.853650813189798" /><vType id="vType_car_23.36662904457957" accel="1.0" decel="5.0" sigma="0.0" length="4.5" maxSpeed="6.490730290160992" /><vType id="vType_car_7.788876348193192" accel="1.0" decel="5.0" sigma="0.0" length="4.5" maxSpeed="2.1635767633869976" /><vType id="vType_car_1.796072126361593" accel="1.0" decel="5.0" sigma="0.0" length="4.5" maxSpeed="0.4989089239893314" /><vType id="vType_truck_29.24179625265453" accel="1.0" decel="5.0" sigma="0.0" length="8" maxSpeed="8.122721181292926" /><vType id="vType_car_18.94552622907108" accel="1.0" decel="5.0" sigma="0.0" length="4.5" maxSpeed="5.262646174741967" /><vType id="vType_car_11.336839588675065" accel="1.0" decel="5.0" sigma="0.0" length="4.5" maxSpeed="3.149122107965296" /><vType id="vType_car_14.92930639846187" accel="1.0" decel="5.0" sigma="0.0" length="4.5" maxSpeed="4.147029555128297" /><vType id="vType_car_14.598525714634814" accel="1.0" decel="5.0" sigma="0.0" length="4.5" maxSpeed="4.0551460318430035" /><vType id="vType_truck_8.844367647685486" accel="1.0" decel="5.0" sigma="0.0" length="8" maxSpeed="2.456768791023746" /><vType id="vType_truck_8.765114764028572" accel="1.0" decel="5.0" sigma="0.0" length="8" maxSpeed="2.4347541011190477" /><vType id="vType_car_55.30658017470028" accel="1.0" decel="5.0" sigma="0.0" length="4.5" maxSpeed="15.362938937416743" /><vType id="vType_car_11.545385892946353" accel="1.0" decel="5.0" sigma="0.0" length="4.5" maxSpeed="3.2070516369295423" /><vType id="vType_car_54.15768609158866" accel="1.0" decel="5.0" sigma="0.0" length="4.5" maxSpeed="15.04380169210796" /><vType id="vType_car_13.078934007100509" accel="1.0" decel="5.0" sigma="0.0" length="4.5" maxSpeed="3.633037224194586" /><vType id="vType_car_80.18809492488893" accel="1.0" decel="5.0" sigma="0.0" length="4.5" maxSpeed="22.274470812469147" /><vType id="vType_car_25.55577644851885" accel="1.0" decel="5.0" sigma="0.0" length="4.5" maxSpeed="7.098826791255235" /><vType id="vType_car_14.257502753260006" accel="1.0" decel="5.0" sigma="0.0" length="4.5" maxSpeed="3.9604174314611127" /><vType id="vType_car_7.540785109667226" accel="1.0" decel="5.0" sigma="0.0" length="4.5" maxSpeed="2.0946625304631183" /><vType id="vType_truck_9.641778485244961" accel="1.0" decel="5.0" sigma="0.0" length="8" maxSpeed="2.6782718014569338" /><vType id="vType_car_62.396768743018825" accel="1.0" decel="5.0" sigma="0.0" length="4.5" maxSpeed="17.33243576194967" /><vType id="vType_car_74.56753434873646" accel="1.0" decel="5.0" sigma="0.0" length="4.5" maxSpeed="20.713203985760128" /><vType id="vType_car_79.29747867866911" accel="1.0" decel="5.0" sigma="0.0" length="4.5" maxSpeed="22.02707741074142" /><vType id="vType_car_28.601724996550356" accel="1.0" decel="5.0" sigma="0.0" length="4.5" maxSpeed="7.944923610152877" /><vType id="vType_car_16.057179944237845" accel="1.0" decel="5.0" sigma="0.0" length="4.5" maxSpeed="4.46032776228829" /><vType id="vType_car_84.33914514637318" accel="1.0" decel="5.0" sigma="0.0" length="4.5" maxSpeed="23.427540318436996" /><vType id="vType_car_35.47450415474471" accel="1.0" decel="5.0" sigma="0.0" length="4.5" maxSpeed="9.854028931873529" /><vType id="vType_car_29.878225919732518" accel="1.0" decel="5.0" sigma="0.0" length="4.5" maxSpeed="8.2995071999257" /><vType id="vType_car_31.33435429236876" accel="1.0" decel="5.0" sigma="0.0" length="4.5" maxSpeed="8.703987303435767" /><vType id="vType_car_34.01793944388573" accel="1.0" decel="5.0" sigma="0.0" length="4.5" maxSpeed="9.449427623301592" /><vType id="vType_car_74.64993827948655" accel="1.0" decel="5.0" sigma="0.0" length="4.5" maxSpeed="20.73609396652404" /><vType id="vType_car_33.93634215531925" accel="1.0" decel="5.0" sigma="0.0" length="4.5" maxSpeed="9.426761709810902" /><vType id="vType_car_49.179545506294495" accel="1.0" decel="5.0" sigma="0.0" length="4.5" maxSpeed="13.660984862859582" /><vType id="vType_car_11.414023905515728" accel="1.0" decel="5.0" sigma="0.0" length="4.5" maxSpeed="3.1705621959765913" /><vType id="vType_car_58.52063330810017" accel="1.0" decel="5.0" sigma="0.0" length="4.5" maxSpeed="16.25573147447227" /><vType id="vType_car_49.75669364187594" accel="1.0" decel="5.0" sigma="0.0" length="4.5" maxSpeed="13.821303789409983" /><vType id="vType_car_44.29524618736986" accel="1.0" decel="5.0" sigma="0.0" length="4.5" maxSpeed="12.304235052047183" /><vType id="vType_car_12.76235232551389" accel="1.0" decel="5.0" sigma="0.0" length="4.5" maxSpeed="3.5450978681983027" /><vType id="vType_car_12.619867552757777" accel="1.0" decel="5.0" sigma="0.0" length="4.5" maxSpeed="3.505518764654938" /><vType id="vType_car_6.314097718371982" accel="1.0" decel="5.0" sigma="0.0" length="4.5" maxSpeed="1.753916032881106" /><vType id="vType_car_6.46872713024027" accel="1.0" decel="5.0" sigma="0.0" length="4.5" maxSpeed="1.7968686472889637" /><vType id="vType_car_56.392079859097564" accel="1.0" decel="5.0" sigma="0.0" length="4.5" maxSpeed="15.664466627527101" /><vType id="vType_car_11.310443517391528" accel="1.0" decel="5.0" sigma="0.0" length="4.5" maxSpeed="3.141789865942091" /><vType id="vType_car_14.959288915942595" accel="1.0" decel="5.0" sigma="0.0" length="4.5" maxSpeed="4.155358032206276" /><vType id="vType_car_21.65758225731408" accel="1.0" decel="5.0" sigma="0.0" length="4.5" maxSpeed="6.015995071476133" /><vType id="vType_car_15.559020355091643" accel="1.0" decel="5.0" sigma="0.0" length="4.5" maxSpeed="4.3219500986365675" /><vType id="vType_car_47.213268263208114" accel="1.0" decel="5.0" sigma="0.0" length="4.5" maxSpeed="13.114796739780031" /><vType id="vType_car_17.63753902257486" accel="1.0" decel="5.0" sigma="0.0" length="4.5" maxSpeed="4.899316395159683" /><vType id="vType_car_59.096843979040294" accel="1.0" decel="5.0" sigma="0.0" length="4.5" maxSpeed="16.41578999417786" /><vType id="vType_car_50.40283582178575" accel="1.0" decel="5.0" sigma="0.0" length="4.5" maxSpeed="14.000787728273819" /><vType id="vType_car_20.517928592185523" accel="1.0" decel="5.0" sigma="0.0" length="4.5" maxSpeed="5.699424608940423" /><vType id="vType_car_49.33919350856654" accel="1.0" decel="5.0" sigma="0.0" length="4.5" maxSpeed="13.705331530157371" /><vType id="vType_car_3.668567149128499" accel="1.0" decel="5.0" sigma="0.0" length="4.5" maxSpeed="1.0190464303134719" /><vType id="vType_car_27.18099765729954" accel="1.0" decel="5.0" sigma="0.0" length="4.5" maxSpeed="7.550277127027649" /><vType id="vType_car_5.661333866788459" accel="1.0" decel="5.0" sigma="0.0" length="4.5" maxSpeed="1.572592740774572" /><vType id="vType_car_4.575443341113124" accel="1.0" decel="5.0" sigma="0.0" length="4.5" maxSpeed="1.2709564836425344" /><vType id="vType_car_6.415749732114996" accel="1.0" decel="5.0" sigma="0.0" length="4.5" maxSpeed="1.7821527033652766" /><vType id="vType_car_30.59285047434896" accel="1.0" decel="5.0" sigma="0.0" length="4.5" maxSpeed="8.498014020652489" /><vType id="vType_car_31.572384626050116" accel="1.0" decel="5.0" sigma="0.0" length="4.5" maxSpeed="8.770106840569477" /><vType id="vType_car_27.164958382499176" accel="1.0" decel="5.0" sigma="0.0" length="4.5" maxSpeed="7.545821772916438" /><vType id="vType_car_4.797067294519646" accel="1.0" decel="5.0" sigma="0.0" length="4.5" maxSpeed="1.332518692922124" /><vType id="vType_car_4.8600676181912785" accel="1.0" decel="5.0" sigma="0.0" length="4.5" maxSpeed="1.3500187828309107" /><vType id="vType_car_37.44283023671943" accel="1.0" decel="5.0" sigma="0.0" length="4.5" maxSpeed="10.400786176866509" /><vType id="vType_car_39.52265293818026" accel="1.0" decel="5.0" sigma="0.0" length="4.5" maxSpeed="10.978514705050072" /><vType id="vType_car_26.548722854794846" accel="1.0" decel="5.0" sigma="0.0" length="4.5" maxSpeed="7.374645237443013" /><vType id="vType_car_3.5443130514714865" accel="1.0" decel="5.0" sigma="0.0" length="4.5" maxSpeed="0.984531403186524" /><vType id="vType_car_17.211555010312217" accel="1.0" decel="5.0" sigma="0.0" length="4.5" maxSpeed="4.780987502864504" /><vType id="vType_car_4.46511904009302" accel="1.0" decel="5.0" sigma="0.0" length="4.5" maxSpeed="1.2403108444702833" /><vType id="vType_car_45.838711334920156" accel="1.0" decel="5.0" sigma="0.0" length="4.5" maxSpeed="12.732975370811154" /><vType id="vType_car_19.536750139312062" accel="1.0" decel="5.0" sigma="0.0" length="4.5" maxSpeed="5.426875038697795" /><vType id="vType_car_6.866488394962512" accel="1.0" decel="5.0" sigma="0.0" length="4.5" maxSpeed="1.9073578874895867" /><vType id="vType_car_13.863135274352814" accel="1.0" decel="5.0" sigma="0.0" length="4.5" maxSpeed="3.850870909542448" /><vType id="vType_car_3.868104935187895" accel="1.0" decel="5.0" sigma="0.0" length="4.5" maxSpeed="1.0744735931077485" /><vType id="vType_car_13.731907355311463" accel="1.0" decel="5.0" sigma="0.0" length="4.5" maxSpeed="3.8144187098087396" /><vType id="vType_car_19.457945176081772" accel="1.0" decel="5.0" sigma="0.0" length="4.5" maxSpeed="5.404984771133825" /><vType id="vType_car_50.16502311142324" accel="1.0" decel="5.0" sigma="0.0" length="4.5" maxSpeed="13.93472864206201" /><vType id="vType_car_11.06129347115797" accel="1.0" decel="5.0" sigma="0.0" length="4.5" maxSpeed="3.0725815197661026" /><vType id="vType_car_34.439351384047114" accel="1.0" decel="5.0" sigma="0.0" length="4.5" maxSpeed="9.566486495568643" /><vType id="vType_car_3.765655430326989" accel="1.0" decel="5.0" sigma="0.0" length="4.5" maxSpeed="1.0460153973130524" /><vType id="vType_car_49.90872627200242" accel="1.0" decel="5.0" sigma="0.0" length="4.5" maxSpeed="13.863535075556227" /><vType id="vType_car_33.282848948866324" accel="1.0" decel="5.0" sigma="0.0" length="4.5" maxSpeed="9.245235819129535" /><vType id="vType_car_3.2401221449918594" accel="1.0" decel="5.0" sigma="0.0" length="4.5" maxSpeed="0.9000339291644054" /><vType id="vType_car_21.276992489062366" accel="1.0" decel="5.0" sigma="0.0" length="4.5" maxSpeed="5.910275691406213" /><vType id="vType_car_7.482922174981217" accel="1.0" decel="5.0" sigma="0.0" length="4.5" maxSpeed="2.078589493050338" /><vType id="vType_car_77.11898198790124" accel="1.0" decel="5.0" sigma="0.0" length="4.5" maxSpeed="21.421939441083676" /><vType id="vType_car_9.554324545382212" accel="1.0" decel="5.0" sigma="0.0" length="4.5" maxSpeed="2.653979040383948" /><vType id="vType_truck_26.52795693796155" accel="1.0" decel="5.0" sigma="0.0" length="8" maxSpeed="7.3688769272115415" /><vType id="vType_car_23.3196541946721" accel="1.0" decel="5.0" sigma="0.0" length="4.5" maxSpeed="6.47768172074225" /><vType id="vType_car_43.82484742403897" accel="1.0" decel="5.0" sigma="0.0" length="4.5" maxSpeed="12.173568728899713" /><vType id="vType_car_7.628213485414171" accel="1.0" decel="5.0" sigma="0.0" length="4.5" maxSpeed="2.118948190392825" /><vType id="vType_car_12.364897338282155" accel="1.0" decel="5.0" sigma="0.0" length="4.5" maxSpeed="3.4346937050783763" /><vType id="vType_car_22.939538594136724" accel="1.0" decel="5.0" sigma="0.0" length="4.5" maxSpeed="6.372094053926868" /><vType id="vType_car_12.583551748694466" accel="1.0" decel="5.0" sigma="0.0" length="4.5" maxSpeed="3.4954310413040184" /><vType id="vType_car_25.672402140169396" accel="1.0" decel="5.0" sigma="0.0" length="4.5" maxSpeed="7.131222816713721" /><vType id="vType_car_4.221407210422249" accel="1.0" decel="5.0" sigma="0.0" length="4.5" maxSpeed="1.1726131140061802" /><vType id="vType_car_6.182543754692961" accel="1.0" decel="5.0" sigma="0.0" length="4.5" maxSpeed="1.7173732651924891" /><vType id="vType_car_7.332169747445902" accel="1.0" decel="5.0" sigma="0.0" length="4.5" maxSpeed="2.036713818734973" /><vType id="vType_car_36.57816766876275" accel="1.0" decel="5.0" sigma="0.0" length="4.5" maxSpeed="10.160602130211876" /><vType id="vType_car_27.114214939714543" accel="1.0" decel="5.0" sigma="0.0" length="4.5" maxSpeed="7.531726372142929" /><vType id="vType_car_42.45943606847154" accel="1.0" decel="5.0" sigma="0.0" length="4.5" maxSpeed="11.794287796797649" /><vType id="vType_car_41.53182871397472" accel="1.0" decel="5.0" sigma="0.0" length="4.5" maxSpeed="11.536619087215199" /><vType id="vType_car_10.099451222002685" accel="1.0" decel="5.0" sigma="0.0" length="4.5" maxSpeed="2.805403117222968" /><vType id="vType_car_28.85744839373698" accel="1.0" decel="5.0" sigma="0.0" length="4.5" maxSpeed="8.015957887149161" /><vType id="vType_car_10.499225828209012" accel="1.0" decel="5.0" sigma="0.0" length="4.5" maxSpeed="2.916451618946948" /><vType id="vType_car_36.84244945333223" accel="1.0" decel="5.0" sigma="0.0" length="4.5" maxSpeed="10.23401373703673" /><vType id="vType_car_25.312285086072258" accel="1.0" decel="5.0" sigma="0.0" length="4.5" maxSpeed="7.031190301686738" /><vType id="vType_car_11.614464510735049" accel="1.0" decel="5.0" sigma="0.0" length="4.5" maxSpeed="3.226240141870847" /><vType id="vType_car_27.620408745824697" accel="1.0" decel="5.0" sigma="0.0" length="4.5" maxSpeed="7.672335762729082" /><vType id="vType_car_11.663995521941127" accel="1.0" decel="5.0" sigma="0.0" length="4.5" maxSpeed="3.2399987560947574" /><vType id="vType_car_31.114342544322266" accel="1.0" decel="5.0" sigma="0.0" length="4.5" maxSpeed="8.642872928978408" /><vType id="vType_car_31.729325939738867" accel="1.0" decel="5.0" sigma="0.0" length="4.5" maxSpeed="8.813701649927463" /><vType id="vType_car_59.458556102096644" accel="1.0" decel="5.0" sigma="0.0" length="4.5" maxSpeed="16.516265583915732" /><vType id="vType_car_56.416221778995066" accel="1.0" decel="5.0" sigma="0.0" length="4.5" maxSpeed="15.671172716387519" /><vType id="vType_car_64.79569421046057" accel="1.0" decel="5.0" sigma="0.0" length="4.5" maxSpeed="17.998803947350158" /><vType id="vType_car_59.90855770806613" accel="1.0" decel="5.0" sigma="0.0" length="4.5" maxSpeed="16.641266030018368" /><vType id="vType_car_15.68855602449891" accel="1.0" decel="5.0" sigma="0.0" length="4.5" maxSpeed="4.357932229027475" /><vType id="vType_car_32.52377695405381" accel="1.0" decel="5.0" sigma="0.0" length="4.5" maxSpeed="9.034382487237169" /><vType id="vType_car_11.497174197781948" accel="1.0" decel="5.0" sigma="0.0" length="4.5" maxSpeed="3.1936594993838745" /><vType id="vType_car_9.07603499955853" accel="1.0" decel="5.0" sigma="0.0" length="4.5" maxSpeed="2.521120833210703" /><vType id="vType_car_16.184140392237694" accel="1.0" decel="5.0" sigma="0.0" length="4.5" maxSpeed="4.49559455339936" /><vType id="vType_car_10.449874189740177" accel="1.0" decel="5.0" sigma="0.0" length="4.5" maxSpeed="2.9027428304833824" /><vType id="vType_car_57.424982062823396" accel="1.0" decel="5.0" sigma="0.0" length="4.5" maxSpeed="15.951383906339831" /><vType id="vType_car_26.43671001239592" accel="1.0" decel="5.0" sigma="0.0" length="4.5" maxSpeed="7.343530558998866" /><vType id="vType_car_61.111567473631496" accel="1.0" decel="5.0" sigma="0.0" length="4.5" maxSpeed="16.975435409342083" /><vType id="vType_car_46.28938278791103" accel="1.0" decel="5.0" sigma="0.0" length="4.5" maxSpeed="12.85816188553084" /><vType id="vType_car_12.224836207953711" accel="1.0" decel="5.0" sigma="0.0" length="4.5" maxSpeed="3.3957878355426976" /><vType id="vType_car_9.264801660065789" accel="1.0" decel="5.0" sigma="0.0" length="4.5" maxSpeed="2.5735560166849414" /><vType id="vType_car_36.968439798273906" accel="1.0" decel="5.0" sigma="0.0" length="4.5" maxSpeed="10.269011055076085" /><vType id="vType_car_7.728533709527814" accel="1.0" decel="5.0" sigma="0.0" length="4.5" maxSpeed="2.1468149193132815" /><vType id="vType_car_50.13566379927238" accel="1.0" decel="5.0" sigma="0.0" length="4.5" maxSpeed="13.92657327757566" /><vType id="vType_car_62.631841240105494" accel="1.0" decel="5.0" sigma="0.0" length="4.5" maxSpeed="17.397733677807082" /><vType id="vType_car_69.99166777535086" accel="1.0" decel="5.0" sigma="0.0" length="4.5" maxSpeed="19.44212993759746" /><vType id="vType_car_21.082595595090435" accel="1.0" decel="5.0" sigma="0.0" length="4.5" maxSpeed="5.856276554191788" /><vType id="vType_car_19.80677003820613" accel="1.0" decel="5.0" sigma="0.0" length="4.5" maxSpeed="5.501880566168369" /><vType id="vType_car_21.449272172920015" accel="1.0" decel="5.0" sigma="0.0" length="4.5" maxSpeed="5.958131159144449" /><vType id="vType_car_10.636232505920212" accel="1.0" decel="5.0" sigma="0.0" length="4.5" maxSpeed="2.954509029422281" /><vType id="vType_car_31.725730907860267" accel="1.0" decel="5.0" sigma="0.0" length="4.5" maxSpeed="8.812703029961185" /><vType id="vType_car_54.236448095754476" accel="1.0" decel="5.0" sigma="0.0" length="4.5" maxSpeed="15.065680026598464" /><vType id="vType_car_62.19041837177602" accel="1.0" decel="5.0" sigma="0.0" length="4.5" maxSpeed="17.275116214382226" /><vType id="vType_car_12.220608586273551" accel="1.0" decel="5.0" sigma="0.0" length="4.5" maxSpeed="3.3946134961870973" /><vType id="vType_car_11.802180700310892" accel="1.0" decel="5.0" sigma="0.0" length="4.5" maxSpeed="3.2783835278641367" /><vType id="vType_car_10.627862576770745" accel="1.0" decel="5.0" sigma="0.0" length="4.5" maxSpeed="2.9521840491029847" /><vType id="vType_car_11.542165639071175" accel="1.0" decel="5.0" sigma="0.0" length="4.5" maxSpeed="3.2061571219642153" /><vType id="vType_car_7.589026625152376" accel="1.0" decel="5.0" sigma="0.0" length="4.5" maxSpeed="2.1080629514312155" /><vType id="vType_car_58.7681540565452" accel="1.0" decel="5.0" sigma="0.0" length="4.5" maxSpeed="16.324487237929223" /><vType id="vType_car_14.366120815843454" accel="1.0" decel="5.0" sigma="0.0" length="4.5" maxSpeed="3.9905891155120705" /><vType id="vType_car_30.367552457110346" accel="1.0" decel="5.0" sigma="0.0" length="4.5" maxSpeed="8.435431238086206" /><vType id="vType_car_11.401714255124393" accel="1.0" decel="5.0" sigma="0.0" length="4.5" maxSpeed="3.1671428486456645" /><vType id="vType_car_11.261758735746282" accel="1.0" decel="5.0" sigma="0.0" length="4.5" maxSpeed="3.128266315485078" /><vType id="vType_car_7.535615706051392" accel="1.0" decel="5.0" sigma="0.0" length="4.5" maxSpeed="2.0932265850142757" /><vType id="vType_car_54.325613801985135" accel="1.0" decel="5.0" sigma="0.0" length="4.5" maxSpeed="15.090448278329204" /><vType id="vType_car_17.433483559694608" accel="1.0" decel="5.0" sigma="0.0" length="4.5" maxSpeed="4.842634322137391" /><vType id="vType_car_11.779919692854758" accel="1.0" decel="5.0" sigma="0.0" length="4.5" maxSpeed="3.272199914681877" /><vType id="vType_car_70.31447366033025" accel="1.0" decel="5.0" sigma="0.0" length="4.5" maxSpeed="19.531798238980624" /><vType id="vType_car_27.49683244447283" accel="1.0" decel="5.0" sigma="0.0" length="4.5" maxSpeed="7.638009012353564" /><vType id="vType_car_61.08171929268316" accel="1.0" decel="5.0" sigma="0.0" length="4.5" maxSpeed="16.967144247967543" /><vType id="vType_car_10.755004455528058" accel="1.0" decel="5.0" sigma="0.0" length="4.5" maxSpeed="2.9875012376466827" /><vType id="vType_car_60.91587647690193" accel="1.0" decel="5.0" sigma="0.0" length="4.5" maxSpeed="16.921076799139424" /><vType id="vType_car_84.356840309964" accel="1.0" decel="5.0" sigma="0.0" length="4.5" maxSpeed="23.432455641656667" /><vType id="vType_car_21.275817229685646" accel="1.0" decel="5.0" sigma="0.0" length="4.5" maxSpeed="5.909949230468235" /><vType id="vType_car_78.82021773989533" accel="1.0" decel="5.0" sigma="0.0" length="4.5" maxSpeed="21.894504927748702" /><vType id="vType_car_41.88564427640106" accel="1.0" decel="5.0" sigma="0.0" length="4.5" maxSpeed="11.634901187889183" /><vType id="vType_car_26.90566780595967" accel="1.0" decel="5.0" sigma="0.0" length="4.5" maxSpeed="7.4737966127665745" /><vType id="vType_car_37.83023025222733" accel="1.0" decel="5.0" sigma="0.0" length="4.5" maxSpeed="10.50839729228537" /><vType id="vType_car_27.132242065643158" accel="1.0" decel="5.0" sigma="0.0" length="4.5" maxSpeed="7.536733907123099" /><vType id="vType_car_17.97259356441371" accel="1.0" decel="5.0" sigma="0.0" length="4.5" maxSpeed="4.99238710122603" /><vType id="vType_truck_32.26131344935243" accel="1.0" decel="5.0" sigma="0.0" length="8" maxSpeed="8.961475958153452" /><vType id="vType_car_45.9095022762056" accel="1.0" decel="5.0" sigma="0.0" length="4.5" maxSpeed="12.752639521168222" /><vType id="vType_car_41.56274685246127" accel="1.0" decel="5.0" sigma="0.0" length="4.5" maxSpeed="11.545207459017018" /><vType id="vType_car_62.912012094467066" accel="1.0" decel="5.0" sigma="0.0" length="4.5" maxSpeed="17.47555891512974" /><vType id="vType_car_21.938315481905608" accel="1.0" decel="5.0" sigma="0.0" length="4.5" maxSpeed="6.093976522751557" /><vType id="vType_car_19.393489071234605" accel="1.0" decel="5.0" sigma="0.0" length="4.5" maxSpeed="5.387080297565168" /><vType id="vType_car_30.105687694401663" accel="1.0" decel="5.0" sigma="0.0" length="4.5" maxSpeed="8.362691026222684" /><vType id="vType_car_12.896121062172442" accel="1.0" decel="5.0" sigma="0.0" length="4.5" maxSpeed="3.582255850603456" /><vType id="vType_car_56.773410698608025" accel="1.0" decel="5.0" sigma="0.0" length="4.5" maxSpeed="15.770391860724452" /><vType id="vType_car_47.851432350570136" accel="1.0" decel="5.0" sigma="0.0" length="4.5" maxSpeed="13.292064541825038" /><vType id="vType_car_47.68541715904198" accel="1.0" decel="5.0" sigma="0.0" length="4.5" maxSpeed="13.245949210844994" /><vType id="vType_car_31.02388230458031" accel="1.0" decel="5.0" sigma="0.0" length="4.5" maxSpeed="8.617745084605643" /><vType id="vType_car_45.143705525175264" accel="1.0" decel="5.0" sigma="0.0" length="4.5" maxSpeed="12.539918201437573" /><vType id="vType_car_49.203105749168955" accel="1.0" decel="5.0" sigma="0.0" length="4.5" maxSpeed="13.667529374769154" /><vType id="vType_car_13.922326720054826" accel="1.0" decel="5.0" sigma="0.0" length="4.5" maxSpeed="3.867312977793007" /><vType id="vType_car_17.527689292076584" accel="1.0" decel="5.0" sigma="0.0" length="4.5" maxSpeed="4.8688025811323845" /><vType id="vType_car_9.654217494957987" accel="1.0" decel="5.0" sigma="0.0" length="4.5" maxSpeed="2.681727081932774" /><vType id="vType_car_4.890753663648929" accel="1.0" decel="5.0" sigma="0.0" length="4.5" maxSpeed="1.3585426843469246" /><vType id="vType_car_57.16935739963012" accel="1.0" decel="5.0" sigma="0.0" length="4.5" maxSpeed="15.880377055452811" /><vType id="vType_car_3.4832913965800594" accel="1.0" decel="5.0" sigma="0.0" length="4.5" maxSpeed="0.9675809434944609" /><vType id="vType_car_16.147690982892524" accel="1.0" decel="5.0" sigma="0.0" length="4.5" maxSpeed="4.485469717470146" /><vType id="vType_car_17.379588611914123" accel="1.0" decel="5.0" sigma="0.0" length="4.5" maxSpeed="4.827663503309479" /><vType id="vType_car_13.153754302066618" accel="1.0" decel="5.0" sigma="0.0" length="4.5" maxSpeed="3.6538206394629493" /><vType id="vType_car_48.594006787210716" accel="1.0" decel="5.0" sigma="0.0" length="4.5" maxSpeed="13.498335218669643" /><vType id="vType_car_47.28988453185109" accel="1.0" decel="5.0" sigma="0.0" length="4.5" maxSpeed="13.1360790366253" /><vType id="vType_car_49.28532747774227" accel="1.0" decel="5.0" sigma="0.0" length="4.5" maxSpeed="13.690368743817297" /><vType id="vType_car_33.73176554669451" accel="1.0" decel="5.0" sigma="0.0" length="4.5" maxSpeed="9.369934874081808" /><vType id="vType_car_35.51020672763337" accel="1.0" decel="5.0" sigma="0.0" length="4.5" maxSpeed="9.86394631323149" /><vType id="vType_car_17.142342556591853" accel="1.0" decel="5.0" sigma="0.0" length="4.5" maxSpeed="4.761761821275514" /><vType id="vType_car_21.363339984548084" accel="1.0" decel="5.0" sigma="0.0" length="4.5" maxSpeed="5.934261106818912" /><vType id="vType_car_6.8287400400539955" accel="1.0" decel="5.0" sigma="0.0" length="4.5" maxSpeed="1.896872233348332" /><vType id="vType_car_53.36958902306415" accel="1.0" decel="5.0" sigma="0.0" length="4.5" maxSpeed="14.824885839740041" /><vType id="vType_car_55.02000124768266" accel="1.0" decel="5.0" sigma="0.0" length="4.5" maxSpeed="15.283333679911848" /><vType id="vType_car_28.28239850593921" accel="1.0" decel="5.0" sigma="0.0" length="4.5" maxSpeed="7.856221807205336" /><vType id="vType_car_17.614767550169038" accel="1.0" decel="5.0" sigma="0.0" length="4.5" maxSpeed="4.892990986158066" /><vType id="vType_car_35.94857700158855" accel="1.0" decel="5.0" sigma="0.0" length="4.5" maxSpeed="9.985715833774599" /><vType id="vType_car_35.21280865261679" accel="1.0" decel="5.0" sigma="0.0" length="4.5" maxSpeed="9.781335736837997" /><vType id="vType_car_30.899551166835582" accel="1.0" decel="5.0" sigma="0.0" length="4.5" maxSpeed="8.583208657454328" /><vType id="vType_car_14.706076659109463" accel="1.0" decel="5.0" sigma="0.0" length="4.5" maxSpeed="4.085021294197073" /><vType id="vType_car_6.966582793160118" accel="1.0" decel="5.0" sigma="0.0" length="4.5" maxSpeed="1.9351618869889216" /><vType id="vType_bus_12.001398600809724" accel="1.0" decel="5.0" sigma="0.0" length="13" maxSpeed="3.3337218335582564" /><vType id="vType_car_19.324649771855047" accel="1.0" decel="5.0" sigma="0.0" length="4.5" maxSpeed="5.367958269959735" /><vType id="vType_car_14.2796018897171" accel="1.0" decel="5.0" sigma="0.0" length="4.5" maxSpeed="3.966556080476972" /><vType id="vType_car_8.672118974039002" accel="1.0" decel="5.0" sigma="0.0" length="4.5" maxSpeed="2.408921937233056" /><vType id="vType_car_16.424036273409488" accel="1.0" decel="5.0" sigma="0.0" length="4.5" maxSpeed