<?xml version="1.0" encoding="utf-8"?>
<routes>
	<vType id="vType_car_20.945776671074867" accel="1.0" decel="5.0" sigma="0.0" length="4.5" maxSpeed="5.818271297520797" />
	<vType id="vType_car_21.715403729380423" accel="1.0" decel="5.0" sigma="0.0" length="4.5" maxSpeed="6.032056591494562" />
	<vType id="vType_car_42.353811736753364" accel="1.0" decel="5.0" sigma="0.0" length="4.5" maxSpeed="11.764947704653713" />
	<vType id="vType_car_32.00867273259105" accel="1.0" decel="5.0" sigma="0.0" length="4.5" maxSpeed="8.891297981275292" />
	<vType id="vType_car_5.75126639427306" accel="1.0" decel="5.0" sigma="0.0" length="4.5" maxSpeed="1.5975739984091832" />
	<vType id="vType_car_16.486343740510332" accel="1.0" decel="5.0" sigma="0.0" length="4.5" maxSpeed="4.579539927919536" />
	<vType id="vType_car_4.776243621720529" accel="1.0" decel="5.0" sigma="0.0" length="4.5" maxSpeed="1.3267343393668136" />
	<vType id="vType_car_4.536261805091252" accel="1.0" decel="5.0" sigma="0.0" length="4.5" maxSpeed="1.2600727236364588" />
	<vType id="vType_car_14.732049395157995" accel="1.0" decel="5.0" sigma="0.0" length="4.5" maxSpeed="4.092235943099443" />
	<vType id="vType_car_18.777653563277763" accel="1.0" decel="5.0" sigma="0.0" length="4.5" maxSpeed="5.216014878688267" />
	<vType id="vType_car_24.38545154270174" accel="1.0" decel="5.0" sigma="0.0" length="4.5" maxSpeed="6.773736539639373" />
	<vType id="vType_car_22.38604352233881" accel="1.0" decel="5.0" sigma="0.0" length="4.5" maxSpeed="6.2183454228718915" />
	<vType id="vType_car_23.75907268055274" accel="1.0" decel="5.0" sigma="0.0" length="4.5" maxSpeed="6.59974241126465" />
	<vType id="vType_car_25.729384569686463" accel="1.0" decel="5.0" sigma="0.0" length="4.5" maxSpeed="7.147051269357351" />
	<vType id="vType_car_30.462474088051234" accel="1.0" decel="5.0" sigma="0.0" length="4.5" maxSpeed="8.46179835779201" />
	<vType id="vType_car_4.201529606995213" accel="1.0" decel="5.0" sigma="0.0" length="4.5" maxSpeed="1.1670915574986702" />
	<vType id="vType_car_23.45486849215839" accel="1.0" decel="5.0" sigma="0.0" length="4.5" maxSpeed="6.515241247821775" />
	<vType id="vType_car_24.10220533989853" accel="1.0" decel="5.0" sigma="0.0" length="4.5" maxSpeed="6.6950570388607025" />
	<vType id="vType_car_4.3070807165074125" accel="1.0" decel="5.0" sigma="0.0" length="4.5" maxSpeed="1.196411310140948" />
	<vType id="vType_car_9.569842797530038" accel="1.0" decel="5.0" sigma="0.0" length="4.5" maxSpeed="2.658289665980566" />
	<vType id="vType_car_13.730711994934163" accel="1.0" decel="5.0" sigma="0.0" length="4.5" maxSpeed="3.81408666525949" />
	<vType id="vType_car_5.218437830817732" accel="1.0" decel="5.0" sigma="0.0" length="4.5" maxSpeed="1.4495660641160366" />
	<vType id="vType_car_12.059415404484675" accel="1.0" decel="5.0" sigma="0.0" length="4.5" maxSpeed="3.349837612356854" />
	<vType id="vType_car_40.08065860602806" accel="1.0" decel="5.0" sigma="0.0" length="4.5" maxSpeed="11.13351627945224" />
	<vType id="vType_car_4.9209211156217165" accel="1.0" decel="5.0" sigma="0.0" length="4.5" maxSpeed="1.3669225321171434" />
	<vType id="vType_car_8.461046462161478" accel="1.0" decel="5.0" sigma="0.0" length="4.5" maxSpeed="2.350290683933744" />
	<vType id="vType_car_64.5583375449054" accel="1.0" decel="5.0" sigma="0.0" length="4.5" maxSpeed="17.9328715402515" />
	<vType id="vType_car_5.3110327151635754" accel="1.0" decel="5.0" sigma="0.0" length="4.5" maxSpeed="1.4752868653232154" />
	<vType id="vType_car_4.820874581466667" accel="1.0" decel="5.0" sigma="0.0" length="4.5" maxSpeed="1.3391318281851852" />
	<vType id="vType_car_17.61121155949074" accel="1.0" decel="5.0" sigma="0.0" length="4.5" maxSpeed="4.8920032109696505" />
	<vType id="vType_car_14.428623473853362" accel="1.0" decel="5.0" sigma="0.0" length="4.5" maxSpeed="4.007950964959267" />
	<vType id="vType_car_20.48590616073031" accel="1.0" decel="5.0" sigma="0.0" length="4.5" maxSpeed="5.690529489091753" />
	<vType id="vType_car_15.279224269752337" accel="1.0" decel="5.0" sigma="0.0" length="4.5" maxSpeed="4.244228963820094" />
	<vType id="vType_car_5.015088295473412" accel="1.0" decel="5.0" sigma="0.0" length="4.5" maxSpeed="1.393080082075948" />
	<vType id="vType_car_25.223333613150604" accel="1.0" decel="5.0" sigma="0.0" length="4.5" maxSpeed="7.006481559208501" />
	<vType id="vType_car_19.180314601381312" accel="1.0" decel="5.0" sigma="0.0" length="4.5" maxSpeed="5.327865167050365" />
	<vType id="vType_car_29.066765483260266" accel="1.0" decel="5.0" sigma="0.0" length="4.5" maxSpeed="8.074101523127851" />
	<vType id="vType_car_21.56913204637689" accel="1.0" decel="5.0" sigma="0.0" length="4.5" maxSpeed="5.991425568438025" />
	<vType id="vType_truck_22.175209610122803" accel="1.0" decel="5.0" sigma="0.0" length="8" maxSpeed="6.159780447256334" />
	<vType id="vType_car_52.431085836820415" accel="1.0" decel="5.0" sigma="0.0" length="4.5" maxSpeed="14.564190510227892" />
	<vType id="vType_car_34.45660233247068" accel="1.0" decel="5.0" sigma="0.0" length="4.5" maxSpeed="9.5712784256863" />
	<vType id="vType_car_12.961280592138086" accel="1.0" decel="5.0" sigma="0.0" length="4.5" maxSpeed="3.6003557200383574" />
	<vType id="vType_car_59.488764052059274" accel="1.0" decel="5.0" sigma="0.0" length="4.5" maxSpeed="16.524656681127574" />
    <vType id="vType_car_18.500886657557896" accel="1.0" decel="5.0" sigma="0.0" length="4.5" maxSpeed="5.139135182654971" />
	<vType id="vType_car_55.90982808584698" accel="1.0" decel="5.0" sigma="0.0" length="4.5" maxSpeed="15.530507801624161" />
	<vType id="vType_car_41.46556054594615" accel="1.0" decel="5.0" sigma="0.0" length="4.5" maxSpeed="11.518211262762819" />
	<vType id="vType_car_14.149008590588194" accel="1.0" decel="5.0" sigma="0.0" length="4.5" maxSpeed="3.930280164052276" />
	<vType id="vType_car_3.7579623242877083" accel="1.0" decel="5.0" sigma="0.0" length="4.5" maxSpeed="1.0438784234132523" />
	<vType id="vType_car_23.142128373686997" accel="1.0" decel="5.0" sigma="0.0" length="4.5" maxSpeed="6.4283689926908325" />
	<vType id="vType_car_36.87643938619963" accel="1.0" decel="5.0" sigma="0.0" length="4.5" maxSpeed="10.243455385055452" />
	<vType id="vType_car_16.93550679329459" accel="1.0" decel="5.0" sigma="0.0" length="4.5" maxSpeed="4.70430744258183" />
	<vType id="vType_car_16.85446231217499" accel="1.0" decel="5.0" sigma="0.0" length="4.5" maxSpeed="4.681795086715275" />
	<vType id="vType_car_5.100794714394528" accel="1.0" decel="5.0" sigma="0.0" length="4.5" maxSpeed="1.4168874206651467" />
	<vType id="vType_car_21.384199765266526" accel="1.0" decel="5.0" sigma="0.0" length="4.5" maxSpeed="5.940055490351813" />
	<vType id="vType_car_5.2362974060020395" accel="1.0" decel="5.0" sigma="0.0" length="4.5" maxSpeed="1.4545270572227886" />
	<vType id="vType_truck_4.610629527542765" accel="1.0" decel="5.0" sigma="0.0" length="8" maxSpeed="1.280730424317435" />
	<vType id="vType_car_26.576802206622588" accel="1.0" decel="5.0" sigma="0.0" length="4.5" maxSpeed="7.382445057395163" />
	<vType id="vType_car_28.111213774593278" accel="1.0" decel="5.0" sigma="0.0" length="4.5" maxSpeed="7.808670492942577" />
	<vType id="vType_car_25.04206331268198" accel="1.0" decel="5.0" sigma="0.0" length="4.5" maxSpeed="6.956128697967216" />
	<route id="route_north_to_east" edges="north_to_center center_to_east" />
	<route id="route_north_to_south" edges="north_to_center center_to_south" />
	<route id="route_north_to_west" edges="north_to_center center_to_west" />
	<route id="route_east_to_west" edges="east_to_center center_to_west" />
	<route id="route_east_to_south" edges="east_to_center center_to_south" />
	<route id="route_east_to_north" edges="east_to_center center_to_north" />
	<route id="route_south_to_west" edges="south_to_center center_to_west" />
	<route id="route_south_to_north" edges="south_to_center center_to_north" />
	<route id="route_south_to_east" edges="south_to_center center_to_east" />
	<route id="route_west_to_south" edges="west_to_center center_to_south" />
	<route id="route_west_to_north" edges="west_to_center center_to_north" />
	<route id="route_west_to_east" edges="west_to_center center_to_east" />
	<vehicle id="veh1" type="vType_car_20.945776671074867" route="route_south_to_north" depart="0.03" />
	<vehicle id="veh2" type="vType_car_21.715403729380423" route="route_east_to_south" depart="0.03" />
	<vehicle id="veh3" type="vType_car_42.353811736753364" route="route_east_to_west" depart="0.03" />
	<vehicle id="veh4" type="vType_car_32.00867273259105" route="route_east_to_west" depart="0.03" />
	<vehicle id="veh6" type="vType_car_16.486343740510332" route="route_north_to_south" depart="1.31" />
	<vehicle id="veh9" type="vType_car_14.732049395157995" route="route_west_to_east" depart="15.16" />
	<vehicle id="veh10" type="vType_car_18.777653563277763" route="route_west_to_east" depart="19.18" />
	<vehicle id="veh13" type="vType_car_24.38545154270174" route="route_west_to_north" depart="19.65" />
	<vehicle id="veh12" type="vType_car_22.38604352233881" route="route_west_to_east" depart="19.88" />
	<vehicle id="veh14" type="vType_car_23.75907268055274" route="route_west_to_east" depart="21.79" />
	<vehicle id="veh15" type="vType_car_25.729384569686463" route="route_west_to_north" depart="22.40" />
	<vehicle id="veh16" type="vType_car_30.462474088051234" route="route_west_to_east" depart="26.05" />
	<vehicle id="veh22" type="vType_car_23.45486849215839" route="route_east_to_west" depart="35.00" />
	<vehicle id="veh24" type="vType_car_24.10220533989853" route="route_east_to_west" depart="35.47" />
	<vehicle id="veh27" type="vType_car_13.730711994934163" route="route_east_to_south" depart="42.11" />
	<vehicle id="veh40" type="vType_car_17.61121155949074" route="route_north_to_south" depart="52.77" />
	<vehicle id="veh42" type="vType_car_14.428623473853362" route="route_north_to_west" depart="60.72" />
	<vehicle id="veh43" type="vType_car_20.48590616073031" route="route_west_to_east" depart="64.17" />
	<vehicle id="veh46" type="vType_car_15.279224269752337" route="route_west_to_north" depart="77.62" />
	<vehicle id="veh48" type="vType_car_25.223333613150604" route="route_north_to_south" depart="80.34" />
	<vehicle id="veh49" type="vType_car_19.180314601381312" route="route_north_to_west" depart="83.86" />
	<vehicle id="veh50" type="vType_car_29.066765483260266" route="route_north_to_south" depart="83.89" />
	<vehicle id="veh51" type="vType_car_21.56913204637689" route="route_west_to_east" depart="95.12" />
	<vehicle id="veh52" type="vType_truck_22.175209610122803" route="route_west_to_east" depart="95.49" />
	<vehicle id="veh53" type="vType_car_52.431085836820415" route="route_north_to_south" depart="96.73" />
	<vehicle id="veh54" type="vType_car_34.45660233247068" route="route_west_to_south" depart="105.11" />
	<vehicle id="veh55" type="vType_car_12.961280592138086" route="route_south_to_east" depart="105.35" />
    <vehicle id="veh47" type="vType_car_18.500886657557896" route="route_east_to_south" depart="120.03" />
	<vehicle id="veh59" type="vType_car_55.90982808584698" route="route_west_to_east" depart="120.03" />
	<vehicle id="veh60" type="vType_car_41.46556054594615" route="route_east_to_west" depart="122.98" />
	<vehicle id="veh61" type="vType_car_14.149008590588194" route="route_east_to_north" depart="132.57" />
	<vehicle id="veh63" type="vType_car_23.142128373686997" route="route_south_to_west" depart="137.64" />
	<vehicle id="veh64" type="vType_car_36.87643938619963" route="route_east_to_west" depart="138.71" />
	<vehicle id="veh66" type="vType_car_16.93550679329459" route="route_south_to_north" depart="145.35" />
	<vehicle id="veh67" type="vType_car_16.85446231217499" route="route_west_to_north" depart="151.95" />
	<vehicle id="veh70" type="vType_car_21.384199765266526" route="route_east_to_west" depart="161.61" />
	<vehicle id="veh73" type="vType_car_26.576802206622588" route="route_west_to_east" depart="167.68" />
	<vehicle id="veh74" type="vType_car_28.111213774593278" route="route_west_to_east" depart="169.15" />
	<vehicle id="veh77" type="vType_car_25.04206331268198" route="route_west_to_south" depart="172.00" />
</routes>
