<?xml version='1.0' encoding='utf-8'?>
<routes><vType id="vType_car_16.18772202343997" accel="1.0" decel="5.0" sigma="0.0" length="4.5" maxSpeed="4.496589450955548" /><vType id="vType_car_24.670780933419536" accel="1.0" decel="5.0" sigma="0.0" length="4.5" maxSpeed="6.852994703727648" /><vType id="vType_car_28.713181645029202" accel="1.0" decel="5.0" sigma="0.0" length="4.5" maxSpeed="7.97588379028589" /><vType id="vType_car_20.513837438897138" accel="1.0" decel="5.0" sigma="0.0" length="4.5" maxSpeed="5.698288177471427" /><vType id="vType_car_23.91335354493549" accel="1.0" decel="5.0" sigma="0.0" length="4.5" maxSpeed="6.642598206926524" /><vType id="vType_car_8.70801755605892" accel="1.0" decel="5.0" sigma="0.0" length="4.5" maxSpeed="2.418893765571922" /><vType id="vType_car_5.741233785387857" accel="1.0" decel="5.0" sigma="0.0" length="4.5" maxSpeed="1.5947871626077381" /><vType id="vType_car_8.24629576034529" accel="1.0" decel="5.0" sigma="0.0" length="4.5" maxSpeed="2.290637711207025" /><vType id="vType_car_27.7035178012296" accel="1.0" decel="5.0" sigma="0.0" length="4.5" maxSpeed="7.695421611452667" /><vType id="vType_car_32.968516803036344" accel="1.0" decel="5.0" sigma="0.0" length="4.5" maxSpeed="9.157921334176763" /><vType id="vType_car_24.36279961516023" accel="1.0" decel="5.0" sigma="0.0" length="4.5" maxSpeed="6.767444337544508" /><vType id="vType_car_19.9199484574975" accel="1.0" decel="5.0" sigma="0.0" length="4.5" maxSpeed="5.533319015971528" /><vType id="vType_car_21.17834935192259" accel="1.0" decel="5.0" sigma="0.0" length="4.5" maxSpeed="5.882874819978498" /><vType id="vType_car_37.53947326995087" accel="1.0" decel="5.0" sigma="0.0" length="4.5" maxSpeed="10.42763146387524" /><vType id="vType_car_41.190347296072986" accel="1.0" decel="5.0" sigma="0.0" length="4.5" maxSpeed="11.441763137798052" /><vType id="vType_car_42.577292761280496" accel="1.0" decel="5.0" sigma="0.0" length="4.5" maxSpeed="11.82702576702236" /><vType id="vType_car_51.35031464256315" accel="1.0" decel="5.0" sigma="0.0" length="4.5" maxSpeed="14.263976289600874" /><vType id="vType_car_9.121535522014208" accel="1.0" decel="5.0" sigma="0.0" length="4.5" maxSpeed="2.5337598672261685" /><vType id="vType_car_58.91412087929039" accel="1.0" decel="5.0" sigma="0.0" length="4.5" maxSpeed="16.36503357758066" /><vType id="vType_truck_38.353698225858665" accel="1.0" decel="5.0" sigma="0.0" length="8" maxSpeed="10.653805062738519" /><vType id="vType_car_54.115962678591906" accel="1.0" decel="5.0" sigma="0.0" length="4.5" maxSpeed="15.032211855164418" /><vType id="vType_car_17.045589921994743" accel="1.0" decel="5.0" sigma="0.0" length="4.5" maxSpeed="4.734886089442984" /><vType id="vType_car_38.67361713741846" accel="1.0" decel="5.0" sigma="0.0" length="4.5" maxSpeed="10.742671427060683" /><vType id="vType_car_61.127197477113725" accel="1.0" decel="5.0" sigma="0.0" length="4.5" maxSpeed="16.979777076976035" /><vType id="vType_car_31.923537619379363" accel="1.0" decel="5.0" sigma="0.0" length="4.5" maxSpeed="8.86764933871649" /><vType id="vType_car_22.22483707394646" accel="1.0" decel="5.0" sigma="0.0" length="4.5" maxSpeed="6.173565853874017" /><vType id="vType_car_40.47216836881026" accel="1.0" decel="5.0" sigma="0.0" length="4.5" maxSpeed="11.242268991336182" /><vType id="vType_car_11.402546519253457" accel="1.0" decel="5.0" sigma="0.0" length="4.5" maxSpeed="3.1673740331259603" /><vType id="vType_car_46.59296969129535" accel="1.0" decel="5.0" sigma="0.0" length="4.5" maxSpeed="12.942491580915375" /><vType id="vType_car_45.12901969836258" accel="1.0" decel="5.0" sigma="0.0" length="4.5" maxSpeed="12.535838805100717" /><vType id="vType_car_44.48976685375819" accel="1.0" decel="5.0" sigma="0.0" length="4.5" maxSpeed="12.358268570488386" /><vType id="vType_car_1.8658651032438551" accel="1.0" decel="5.0" sigma="0.0" length="4.5" maxSpeed="0.5182958620121819" /><vType id="vType_car_37.06690979717641" accel="1.0" decel="5.0" sigma="0.0" length="4.5" maxSpeed="10.296363832549002" /><vType id="vType_car_44.85231668483922" accel="1.0" decel="5.0" sigma="0.0" length="4.5" maxSpeed="12.458976856899781" /><vType id="vType_truck_34.82886030032847" accel="1.0" decel="5.0" sigma="0.0" length="8" maxSpeed="9.674683416757908" /><vType id="vType_car_3.96441061723452" accel="1.0" decel="5.0" sigma="0.0" length="4.5" maxSpeed="1.1012251714540333" /><vType id="vType_car_3.9318883707658165" accel="1.0" decel="5.0" sigma="0.0" length="4.5" maxSpeed="1.0921912141016157" /><vType id="vType_car_42.71477390386726" accel="1.0" decel="5.0" sigma="0.0" length="4.5" maxSpeed="11.865214973296462" /><vType id="vType_car_16.28234751002256" accel="1.0" decel="5.0" sigma="0.0" length="4.5" maxSpeed="4.5228743083396" /><vType id="vType_car_43.29164689963524" accel="1.0" decel="5.0" sigma="0.0" length="4.5" maxSpeed="12.0254574721209" /><vType id="vType_car_14.542786528295402" accel="1.0" decel="5.0" sigma="0.0" length="4.5" maxSpeed="4.0396629245265006" /><vType id="vType_truck_53.09740930668511" accel="1.0" decel="5.0" sigma="0.0" length="8" maxSpeed="14.749280362968085" /><vType id="vType_car_10.633120605729314" accel="1.0" decel="5.0" sigma="0.0" length="4.5" maxSpeed="2.953644612702587" /><vType id="vType_car_10.419831783719312" accel="1.0" decel="5.0" sigma="0.0" length="4.5" maxSpeed="2.894397717699809" /><vType id="vType_car_44.38708551374606" accel="1.0" decel="5.0" sigma="0.0" length="4.5" maxSpeed="12.329745976040572" /><vType id="vType_car_44.07020180973818" accel="1.0" decel="5.0" sigma="0.0" length="4.5" maxSpeed="12.241722724927271" /><vType id="vType_car_11.91477148198919" accel="1.0" decel="5.0" sigma="0.0" length="4.5" maxSpeed="3.309658744996997" /><vType id="vType_car_55.17545059731093" accel="1.0" decel="5.0" sigma="0.0" length="4.5" maxSpeed="15.326514054808591" /><vType id="vType_car_57.81740399853145" accel="1.0" decel="5.0" sigma="0.0" length="4.5" maxSpeed="16.06038999959207" /><vType id="vType_car_13.719113784546646" accel="1.0" decel="5.0" sigma="0.0" length="4.5" maxSpeed="3.810864940151846" /><vType id="vType_car_12.68697171274181" accel="1.0" decel="5.0" sigma="0.0" length="4.5" maxSpeed="3.5241588090949474" /><vType id="vType_car_3.316453768851567" accel="1.0" decel="5.0" sigma="0.0" length="4.5" maxSpeed="0.9212371580143242" /><vType id="vType_car_3.5695425555637943" accel="1.0" decel="5.0" sigma="0.0" length="4.5" maxSpeed="0.9915395987677206" /><vType id="vType_car_11.334265227647668" accel="1.0" decel="5.0" sigma="0.0" length="4.5" maxSpeed="3.1484070076799076" /><vType id="vType_car_61.1262142729006" accel="1.0" decel="5.0" sigma="0.0" length="4.5" maxSpeed="16.97950396469461" /><vType id="vType_car_18.67619625195885" accel="1.0" decel="5.0" sigma="0.0" length="4.5" maxSpeed="5.187832292210792" /><vType id="vType_car_17.362298994121243" accel="1.0" decel="5.0" sigma="0.0" length="4.5" maxSpeed="4.822860831700345" /><vType id="vType_car_11.267537028044364" accel="1.0" decel="5.0" sigma="0.0" length="4.5" maxSpeed="3.1298713966789897" /><route id="route_north_to_east" edges="north_to_center center_to_east" /><route id="route_north_to_south" edges="north_to_center center_to_south" /><route id="route_north_to_west" edges="north_to_center center_to_west" /><route id="route_east_to_west" edges="east_to_center center_to_west" /><route id="route_east_to_south" edges="east_to_center center_to_south" /><route id="route_east_to_north" edges="east_to_center center_to_north" /><route id="route_south_to_west" edges="south_to_center center_to_west" /><route id="route_south_to_north" edges="south_to_center center_to_north" /><route id="route_south_to_east" edges="south_to_center center_to_east" /><route id="route_west_to_south" edges="west_to_center center_to_south" /><route id="route_west_to_north" edges="west_to_center center_to_north" /><route id="route_west_to_east" edges="west_to_center center_to_east" /><vehicle id="veh1158" type="vType_car_16.18772202343997" route="route_west_to_north" depart="0.04" /><vehicle id="veh1170" type="vType_car_24.670780933419536" route="route_west_to_east" depart="0.04" /><vehicle id="veh1185" type="vType_car_28.713181645029202" route="route_west_to_east" depart="0.04" /><vehicle id="veh1251" type="vType_car_20.513837438897138" route="route_west_to_east" depart="0.04" /><vehicle id="veh1254" type="vType_car_23.91335354493549" route="route_east_to_west" depart="0.04" /><vehicle id="veh1272" type="vType_car_8.70801755605892" route="route_west_to_north" depart="0.04" /><vehicle id="veh1278" type="vType_car_8.24629576034529" route="route_south_to_east" depart="1.75" /><vehicle id="veh1279" type="vType_car_27.7035178012296" route="route_west_to_east" depart="2.43" /><vehicle id="veh1291" type="vType_car_32.968516803036344" route="route_west_to_east" depart="6.94" /><vehicle id="veh1292" type="vType_car_24.36279961516023" route="route_north_to_west" depart="8.08" /><vehicle id="veh1299" type="vType_car_19.9199484574975" route="route_east_to_west" depart="8.69" /><vehicle id="veh1301" type="vType_car_21.17834935192259" route="route_west_to_north" depart="9.12" /><vehicle id="veh1303" type="vType_car_41.190347296072986" route="route_west_to_east" depart="9.90" /><vehicle id="veh1306" type="vType_car_42.577292761280496" route="route_west_to_south" depart="12.55" /><vehicle id="veh1307" type="vType_car_51.35031464256315" route="route_west_to_east" depart="12.59" /><vehicle id="veh1308" type="vType_car_58.91412087929039" route="route_west_to_east" depart="13.98" /><vehicle id="veh1321" type="vType_car_40.47216836881026" route="route_west_to_east" depart="18.49" /><vehicle id="veh1323" type="vType_car_46.59296969129535" route="route_west_to_east" depart="18.52" /><vehicle id="veh1325" type="vType_car_45.12901969836258" route="route_west_to_south" depart="19.27" /><vehicle id="veh1327" type="vType_car_44.48976685375819" route="route_west_to_south" depart="22.03" /><vehicle id="veh1329" type="vType_car_37.06690979717641" route="route_east_to_west" depart="23.42" /><vehicle id="veh1330" type="vType_car_44.85231668483922" route="route_west_to_south" depart="24.39" /><vehicle id="veh1332" type="vType_truck_34.82886030032847" route="route_east_to_west" depart="27.53" /><vehicle id="veh1335" type="vType_car_42.71477390386726" route="route_east_to_west" depart="31.11" /><vehicle id="veh1337" type="vType_car_43.29164689963524" route="route_east_to_west" depart="31.68" /><vehicle id="veh1339" type="vType_car_14.542786528295402" route="route_south_to_east" depart="32.65" /><vehicle id="veh1340" type="vType_truck_53.09740930668511" route="route_east_to_west" depart="34.54" /><vehicle id="veh1344" type="vType_car_10.419831783719312" route="route_east_to_south" depart="35.47" /><vehicle id="veh1345" type="vType_car_44.38708551374606" route="route_east_to_west" depart="36.04" /><vehicle id="veh1346" type="vType_car_44.07020180973818" route="route_east_to_west" depart="36.62" /><vehicle id="veh1348" type="vType_car_11.91477148198919" route="route_south_to_east" depart="37.58" /><vehicle id="veh1349" type="vType_car_55.17545059731093" route="route_east_to_west" depart="38.33" /><vehicle id="veh1350" type="vType_car_57.81740399853145" route="route_west_to_east" depart="39.01" /><vehicle id="veh1355" type="vType_car_12.68697171274181" route="route_south_to_east" depart="42.87" /><vehicle id="veh1360" type="vType_car_11.334265227647668" route="route_south_to_east" depart="49.45" /><vehicle id="veh1361" type="vType_car_61.1262142729006" route="route_east_to_west" depart="55.21" /></routes>