<?xml version='1.0' encoding='utf-8'?>
<routes><vType id="vType_car_39.478820360076924" accel="1.0" decel="5.0" sigma="0.0" length="4.5" maxSpeed="10.966338988910257" /><vType id="vType_car_27.592298067423524" accel="1.0" decel="5.0" sigma="0.0" length="4.5" maxSpeed="7.664527240950979" /><vType id="vType_car_22.948021549776392" accel="1.0" decel="5.0" sigma="0.0" length="4.5" maxSpeed="6.374450430493442" /><vType id="vType_car_17.56118247918848" accel="1.0" decel="5.0" sigma="0.0" length="4.5" maxSpeed="4.878106244219023" /><vType id="vType_car_11.669537640741128" accel="1.0" decel="5.0" sigma="0.0" length="4.5" maxSpeed="3.241538233539202" /><vType id="vType_car_20.1804909510116" accel="1.0" decel="5.0" sigma="0.0" length="4.5" maxSpeed="5.605691930836556" /><vType id="vType_car_27.278369874947476" accel="1.0" decel="5.0" sigma="0.0" length="4.5" maxSpeed="7.5773249652631876" /><vType id="vType_car_31.406009406729485" accel="1.0" decel="5.0" sigma="0.0" length="4.5" maxSpeed="8.723891501869302" /><vType id="vType_car_10.52673281263152" accel="1.0" decel="5.0" sigma="0.0" length="4.5" maxSpeed="2.9240924479532002" /><vType id="vType_car_30.936977512442304" accel="1.0" decel="5.0" sigma="0.0" length="4.5" maxSpeed="8.593604864567306" /><vType id="vType_car_20.16003359438115" accel="1.0" decel="5.0" sigma="0.0" length="4.5" maxSpeed="5.600009331772542" /><vType id="vType_car_3.8287491441608106" accel="1.0" decel="5.0" sigma="0.0" length="4.5" maxSpeed="1.0635414289335585" /><vType id="vType_car_39.005280305491034" accel="1.0" decel="5.0" sigma="0.0" length="4.5" maxSpeed="10.834800084858621" /><vType id="vType_car_35.72437986885145" accel="1.0" decel="5.0" sigma="0.0" length="4.5" maxSpeed="9.923438852458736" /><vType id="vType_car_37.921233342745325" accel="1.0" decel="5.0" sigma="0.0" length="4.5" maxSpeed="10.533675928540367" /><vType id="vType_car_35.08495439483902" accel="1.0" decel="5.0" sigma="0.0" length="4.5" maxSpeed="9.745820665233062" /><vType id="vType_car_28.43442718446136" accel="1.0" decel="5.0" sigma="0.0" length="4.5" maxSpeed="7.898451995683711" /><vType id="vType_car_3.61495573179037" accel="1.0" decel="5.0" sigma="0.0" length="4.5" maxSpeed="1.0041543699417694" /><vType id="vType_car_42.62785749428879" accel="1.0" decel="5.0" sigma="0.0" length="4.5" maxSpeed="11.84107152619133" /><vType id="vType_car_14.743972098013774" accel="1.0" decel="5.0" sigma="0.0" length="4.5" maxSpeed="4.095547805003826" /><vType id="vType_car_3.9342017076331595" accel="1.0" decel="5.0" sigma="0.0" length="4.5" maxSpeed="1.0928338076758777" /><vType id="vType_car_15.302327358019161" accel="1.0" decel="5.0" sigma="0.0" length="4.5" maxSpeed="4.250646488338655" /><vType id="vType_car_3.523732129404789" accel="1.0" decel="5.0" sigma="0.0" length="4.5" maxSpeed="0.9788144803902191" /><vType id="vType_car_9.360349402763978" accel="1.0" decel="5.0" sigma="0.0" length="4.5" maxSpeed="2.600097056323327" /><vType id="vType_car_19.1305227412724" accel="1.0" decel="5.0" sigma="0.0" length="4.5" maxSpeed="5.314034094797889" /><vType id="vType_car_3.5237321294047885" accel="1.0" decel="5.0" sigma="0.0" length="4.5" maxSpeed="0.978814480390219" /><vType id="vType_car_6.068877612708497" accel="1.0" decel="5.0" sigma="0.0" length="4.5" maxSpeed="1.6857993368634714" /><vType id="vType_car_4.303107073833307" accel="1.0" decel="5.0" sigma="0.0" length="4.5" maxSpeed="1.195307520509252" /><vType id="vType_car_0.503390304200684" accel="1.0" decel="5.0" sigma="0.0" length="4.5" maxSpeed="0.13983064005574555" /><vType id="vType_car_3.4996394117530802" accel="1.0" decel="5.0" sigma="0.0" length="4.5" maxSpeed="0.9721220588203" /><vType id="vType_car_15.336911739714802" accel="1.0" decel="5.0" sigma="0.0" length="4.5" maxSpeed="4.260253261031889" /><vType id="vType_car_4.166206431582657" accel="1.0" decel="5.0" sigma="0.0" length="4.5" maxSpeed="1.1572795643285156" /><vType id="vType_car_52.013564019727454" accel="1.0" decel="5.0" sigma="0.0" length="4.5" maxSpeed="14.44821222770207" /><vType id="vType_car_24.440625399465908" accel="1.0" decel="5.0" sigma="0.0" length="4.5" maxSpeed="6.789062610962752" /><vType id="vType_car_11.721674765016617" accel="1.0" decel="5.0" sigma="0.0" length="4.5" maxSpeed="3.2560207680601714" /><vType id="vType_car_16.297643704488408" accel="1.0" decel="5.0" sigma="0.0" length="4.5" maxSpeed="4.52712325124678" /><vType id="vType_car_3.663794899094863" accel="1.0" decel="5.0" sigma="0.0" length="4.5" maxSpeed="1.0177208053041285" /><vType id="vType_car_18.455535516704128" accel="1.0" decel="5.0" sigma="0.0" length="4.5" maxSpeed="5.126537643528924" /><vType id="vType_car_24.674213467187265" accel="1.0" decel="5.0" sigma="0.0" length="4.5" maxSpeed="6.853948185329796" /><vType id="vType_car_25.395981840067403" accel="1.0" decel="5.0" sigma="0.0" length="4.5" maxSpeed="7.0544394000187225" /><vType id="vType_car_24.8334459103625" accel="1.0" decel="5.0" sigma="0.0" length="4.5" maxSpeed="6.898179419545139" /><vType id="vType_car_3.1782681951494176" accel="1.0" decel="5.0" sigma="0.0" length="4.5" maxSpeed="0.8828522764303938" /><vType id="vType_car_31.248871657797572" accel="1.0" decel="5.0" sigma="0.0" length="4.5" maxSpeed="8.680242127165991" /><vType id="vType_car_25.826467530449683" accel="1.0" decel="5.0" sigma="0.0" length="4.5" maxSpeed="7.174018758458245" /><vType id="vType_car_3.451119661419002" accel="1.0" decel="5.0" sigma="0.0" length="4.5" maxSpeed="0.9586443503941672" /><vType id="vType_car_3.1909336366646297" accel="1.0" decel="5.0" sigma="0.0" length="4.5" maxSpeed="0.8863704546290638" /><vType id="vType_car_46.554138162133334" accel="1.0" decel="5.0" sigma="0.0" length="4.5" maxSpeed="12.931705045037036" /><vType id="vType_car_4.698309505873051" accel="1.0" decel="5.0" sigma="0.0" length="4.5" maxSpeed="1.3050859738536253" /><vType id="vType_car_33.89458793081225" accel="1.0" decel="5.0" sigma="0.0" length="4.5" maxSpeed="9.415163314114514" /><vType id="vType_car_4.900898196290902" accel="1.0" decel="5.0" sigma="0.0" length="4.5" maxSpeed="1.3613606100808062" /><vType id="vType_car_22.396300569656887" accel="1.0" decel="5.0" sigma="0.0" length="4.5" maxSpeed="6.221194602682468" /><vType id="vType_car_35.60078929996559" accel="1.0" decel="5.0" sigma="0.0" length="4.5" maxSpeed="9.889108138879331" /><vType id="vType_car_20.620268932286873" accel="1.0" decel="5.0" sigma="0.0" length="4.5" maxSpeed="5.727852481190798" /><vType id="vType_car_28.450345099623327" accel="1.0" decel="5.0" sigma="0.0" length="4.5" maxSpeed="7.902873638784257" /><vType id="vType_car_3.4962513633563246" accel="1.0" decel="5.0" sigma="0.0" length="4.5" maxSpeed="0.9711809342656457" /><vType id="vType_car_34.909702883994235" accel="1.0" decel="5.0" sigma="0.0" length="4.5" maxSpeed="9.697139689998398" /><vType id="vType_car_52.96040544856676" accel="1.0" decel="5.0" sigma="0.0" length="4.5" maxSpeed="14.711223735712988" /><vType id="vType_car_4.020325343237291" accel="1.0" decel="5.0" sigma="0.0" length="4.5" maxSpeed="1.1167570397881363" /><vType id="vType_car_3.35285350611654" accel="1.0" decel="5.0" sigma="0.0" length="4.5" maxSpeed="0.9313481961434833" /><vType id="vType_car_35.664670168272984" accel="1.0" decel="5.0" sigma="0.0" length="4.5" maxSpeed="9.906852824520273" /><vType id="vType_car_3.621871059355809" accel="1.0" decel="5.0" sigma="0.0" length="4.5" maxSpeed="1.0060752942655025" /><vType id="vType_car_20.252088382916465" accel="1.0" decel="5.0" sigma="0.0" length="4.5" maxSpeed="5.6255801063656845" /><vType id="vType_car_47.10614365399448" accel="1.0" decel="5.0" sigma="0.0" length="4.5" maxSpeed="13.085039903887354" /><vType id="vType_car_18.879883719374362" accel="1.0" decel="5.0" sigma="0.0" length="4.5" maxSpeed="5.244412144270656" /><vType id="vType_car_34.640087741397004" accel="1.0" decel="5.0" sigma="0.0" length="4.5" maxSpeed="9.6222465948325" /><vType id="vType_car_3.9271329324650868" accel="1.0" decel="5.0" sigma="0.0" length="4.5" maxSpeed="1.0908702590180797" /><vType id="vType_car_3.342310449275937" accel="1.0" decel="5.0" sigma="0.0" length="4.5" maxSpeed="0.9284195692433157" /><vType id="vType_car_8.21231860780545" accel="1.0" decel="5.0" sigma="0.0" length="4.5" maxSpeed="2.2811996132792918" /><vType id="vType_car_35.918247652483394" accel="1.0" decel="5.0" sigma="0.0" length="4.5" maxSpeed="9.97729101457872" /><vType id="vType_car_4.253520948489433" accel="1.0" decel="5.0" sigma="0.0" length="4.5" maxSpeed="1.1815335968026202" /><vType id="vType_car_50.117192746535906" accel="1.0" decel="5.0" sigma="0.0" length="4.5" maxSpeed="13.921442429593307" /><vType id="vType_car_17.981947038216095" accel="1.0" decel="5.0" sigma="0.0" length="4.5" maxSpeed="4.99498528839336" /><vType id="vType_car_4.69353072715845" accel="1.0" decel="5.0" sigma="0.0" length="4.5" maxSpeed="1.3037585353217915" /><vType id="vType_car_12.09367641559221" accel="1.0" decel="5.0" sigma="0.0" length="4.5" maxSpeed="3.3593545598867247" /><vType id="vType_car_4.5936453895348555" accel="1.0" decel="5.0" sigma="0.0" length="4.5" maxSpeed="1.2760126082041265" /><vType id="vType_car_3.4209917899898628" accel="1.0" decel="5.0" sigma="0.0" length="4.5" maxSpeed="0.9502754972194063" /><vType id="vType_car_7.740789496358405" accel="1.0" decel="5.0" sigma="0.0" length="4.5" maxSpeed="2.1502193045440015" /><vType id="vType_car_11.160626451872583" accel="1.0" decel="5.0" sigma="0.0" length="4.5" maxSpeed="3.100174014409051" /><vType id="vType_car_12.79067032820281" accel="1.0" decel="5.0" sigma="0.0" length="4.5" maxSpeed="3.5529639800563357" /><vType id="vType_car_4.560002804889319" accel="1.0" decel="5.0" sigma="0.0" length="4.5" maxSpeed="1.2666674458025884" /><vType id="vType_car_7.3561995849589925" accel="1.0" decel="5.0" sigma="0.0" length="4.5" maxSpeed="2.04338877359972" /><vType id="vType_car_3.505509639521831" accel="1.0" decel="5.0" sigma="0.0" length="4.5" maxSpeed="0.973752677644953" /><vType id="vType_car_5.505145561288373" accel="1.0" decel="5.0" sigma="0.0" length="4.5" maxSpeed="1.5292071003578813" /><vType id="vType_car_38.016083316344485" accel="1.0" decel="5.0" sigma="0.0" length="4.5" maxSpeed="10.560023143429023" /><route id="route_north_to_east" edges="north_to_center center_to_east" /><route id="route_north_to_south" edges="north_to_center center_to_south" /><route id="route_north_to_west" edges="north_to_center center_to_west" /><route id="route_east_to_west" edges="east_to_center center_to_west" /><route id="route_east_to_south" edges="east_to_center center_to_south" /><route id="route_east_to_north" edges="east_to_center center_to_north" /><route id="route_south_to_west" edges="south_to_center center_to_west" /><route id="route_south_to_north" edges="south_to_center center_to_north" /><route id="route_south_to_east" edges="south_to_center center_to_east" /><route id="route_west_to_south" edges="west_to_center center_to_south" /><route id="route_west_to_north" edges="west_to_center center_to_north" /><route id="route_west_to_east" edges="west_to_center center_to_east" /><vehicle id="veh766" type="vType_car_39.478820360076924" route="route_south_to_west" depart="0.04" /><vehicle id="veh785" type="vType_car_22.948021549776392" route="route_north_to_south" depart="0.04" /><vehicle id="veh880" type="vType_car_17.56118247918848" route="route_north_to_south" depart="0.04" /><vehicle id="veh879" type="vType_car_20.1804909510116" route="route_north_to_south" depart="0.04" /><vehicle id="veh877" type="vType_car_10.52673281263152" route="route_north_to_east" depart="0.04" /><vehicle id="veh888" type="vType_car_30.936977512442304" route="route_south_to_north" depart="0.04" /><vehicle id="veh883" type="vType_car_20.16003359438115" route="route_south_to_east" depart="0.21" /><vehicle id="veh889" type="vType_car_39.005280305491034" route="route_south_to_west" depart="0.46" /><vehicle id="veh864" type="vType_car_35.72437986885145" route="route_south_to_north" depart="0.72" /><vehicle id="veh890" type="vType_car_37.921233342745325" route="route_south_to_west" depart="2.47" /><vehicle id="veh891" type="vType_car_35.08495439483902" route="route_south_to_north" depart="3.83" /><vehicle id="veh892" type="vType_car_28.43442718446136" route="route_south_to_north" depart="4.18" /><vehicle id="veh895" type="vType_car_42.62785749428879" route="route_south_to_west" depart="5.11" /><vehicle id="veh896" type="vType_car_14.743972098013774" route="route_east_to_west" depart="5.26" /><vehicle id="veh901" type="vType_car_15.302327358019161" route="route_west_to_east" depart="6.79" /><vehicle id="veh904" type="vType_car_9.360349402763978" route="route_east_to_west" depart="8.22" /><vehicle id="veh909" type="vType_car_19.1305227412724" route="route_north_to_south" depart="11.59" /><vehicle id="veh915" type="vType_car_15.336911739714802" route="route_south_to_east" depart="14.05" /><vehicle id="veh918" type="vType_car_52.013564019727454" route="route_south_to_north" depart="18.74" /><vehicle id="veh920" type="vType_car_24.440625399465908" route="route_north_to_south" depart="20.67" /><vehicle id="veh923" type="vType_car_16.297643704488408" route="route_north_to_east" depart="22.60" /><vehicle id="veh925" type="vType_car_18.455535516704128" route="route_south_to_east" depart="23.03" /><vehicle id="veh926" type="vType_car_24.674213467187265" route="route_north_to_south" depart="24.39" /><vehicle id="veh927" type="vType_car_25.395981840067403" route="route_north_to_south" depart="25.24" /><vehicle id="veh929" type="vType_car_24.8334459103625" route="route_south_to_east" depart="25.85" /><vehicle id="veh932" type="vType_car_31.248871657797572" route="route_north_to_south" depart="29.71" /><vehicle id="veh934" type="vType_car_25.826467530449683" route="route_north_to_south" depart="31.00" /><vehicle id="veh941" type="vType_car_46.554138162133334" route="route_south_to_north" depart="32.00" /><vehicle id="veh944" type="vType_car_33.89458793081225" route="route_north_to_south" depart="33.25" /><vehicle id="veh949" type="vType_car_35.60078929996559" route="route_north_to_south" depart="35.83" /><vehicle id="veh951" type="vType_car_20.620268932286873" route="route_west_to_east" depart="36.22" /><vehicle id="veh952" type="vType_car_28.450345099623327" route="route_north_to_west" depart="36.33" /><vehicle id="veh955" type="vType_car_34.909702883994235" route="route_north_to_south" depart="37.08" /><vehicle id="veh956" type="vType_car_52.96040544856676" route="route_south_to_north" depart="37.58" /><vehicle id="veh960" type="vType_car_35.664670168272984" route="route_north_to_south" depart="40.44" /><vehicle id="veh962" type="vType_car_20.252088382916465" route="route_north_to_west" depart="41.80" /><vehicle id="veh965" type="vType_car_47.10614365399448" route="route_south_to_north" depart="42.55" /><vehicle id="veh966" type="vType_car_18.879883719374362" route="route_south_to_east" depart="42.80" /><vehicle id="veh968" type="vType_car_34.640087741397004" route="route_north_to_south" depart="43.45" /><vehicle id="veh972" type="vType_car_35.918247652483394" route="route_north_to_south" depart="45.45" /><vehicle id="veh975" type="vType_car_50.117192746535906" route="route_north_to_south" depart="46.06" /><vehicle id="veh976" type="vType_car_17.981947038216095" route="route_east_to_west" depart="50.42" /><vehicle id="veh979" type="vType_car_12.09367641559221" route="route_east_to_north" depart="51.92" /></routes>