<?xml version='1.0' encoding='utf-8'?>
<routes><vType id="vType_car_6.3309772643375615" accel="1.0" decel="5.0" sigma="0.0" length="4.5" maxSpeed="1.7586047956493225" /><vType id="vType_car_12.332534797978049" accel="1.0" decel="5.0" sigma="0.0" length="4.5" maxSpeed="3.425704110549458" /><vType id="vType_car_30.362171923515046" accel="1.0" decel="5.0" sigma="0.0" length="4.5" maxSpeed="8.433936645420847" /><vType id="vType_car_9.11004247910951" accel="1.0" decel="5.0" sigma="0.0" length="4.5" maxSpeed="2.530567355308197" /><vType id="vType_car_28.640575469411505" accel="1.0" decel="5.0" sigma="0.0" length="4.5" maxSpeed="7.955715408169862" /><vType id="vType_car_4.456001688856502" accel="1.0" decel="5.0" sigma="0.0" length="4.5" maxSpeed="1.237778246904584" /><vType id="vType_car_33.35507406353106" accel="1.0" decel="5.0" sigma="0.0" length="4.5" maxSpeed="9.265298350980851" /><vType id="vType_car_3.4654375090160556" accel="1.0" decel="5.0" sigma="0.0" length="4.5" maxSpeed="0.9626215302822376" /><vType id="vType_car_3.9439655489813177" accel="1.0" decel="5.0" sigma="0.0" length="4.5" maxSpeed="1.0955459858281438" /><vType id="vType_car_4.990130309797918" accel="1.0" decel="5.0" sigma="0.0" length="4.5" maxSpeed="1.3861473082771993" /><vType id="vType_car_26.523091750276528" accel="1.0" decel="5.0" sigma="0.0" length="4.5" maxSpeed="7.367525486187924" /><vType id="vType_car_6.4762840542054105" accel="1.0" decel="5.0" sigma="0.0" length="4.5" maxSpeed="1.7989677928348362" /><vType id="vType_car_26.879090557621158" accel="1.0" decel="5.0" sigma="0.0" length="4.5" maxSpeed="7.466414043783654" /><vType id="vType_car_9.315568044674528" accel="1.0" decel="5.0" sigma="0.0" length="4.5" maxSpeed="2.587657790187369" /><vType id="vType_car_9.476309091006383" accel="1.0" decel="5.0" sigma="0.0" length="4.5" maxSpeed="2.6323080808351063" /><vType id="vType_car_34.06889978335676" accel="1.0" decel="5.0" sigma="0.0" length="4.5" maxSpeed="9.463583273154656" /><vType id="vType_car_4.763290436404175" accel="1.0" decel="5.0" sigma="0.0" length="4.5" maxSpeed="1.3231362323344928" /><vType id="vType_car_4.984361628070824" accel="1.0" decel="5.0" sigma="0.0" length="4.5" maxSpeed="1.3845448966863398" /><vType id="vType_car_12.013017634108055" accel="1.0" decel="5.0" sigma="0.0" length="4.5" maxSpeed="3.336949342807793" /><vType id="vType_car_4.169396715034214" accel="1.0" decel="5.0" sigma="0.0" length="4.5" maxSpeed="1.1581657541761705" /><vType id="vType_car_31.66797197159832" accel="1.0" decel="5.0" sigma="0.0" length="4.5" maxSpeed="8.796658880999534" /><vType id="vType_car_7.526183900301035" accel="1.0" decel="5.0" sigma="0.0" length="4.5" maxSpeed="2.0906066389725098" /><vType id="vType_car_31.34295521430059" accel="1.0" decel="5.0" sigma="0.0" length="4.5" maxSpeed="8.706376448416831" /><vType id="vType_car_11.342648727512117" accel="1.0" decel="5.0" sigma="0.0" length="4.5" maxSpeed="3.1507357576422548" /><vType id="vType_car_7.55527817280978" accel="1.0" decel="5.0" sigma="0.0" length="4.5" maxSpeed="2.09868838133605" /><vType id="vType_car_28.928947807750976" accel="1.0" decel="5.0" sigma="0.0" length="4.5" maxSpeed="8.035818835486381" /><vType id="vType_car_19.65149117670965" accel="1.0" decel="5.0" sigma="0.0" length="4.5" maxSpeed="5.458747549086014" /><vType id="vType_car_8.002686868089514" accel="1.0" decel="5.0" sigma="0.0" length="4.5" maxSpeed="2.2229685744693093" /><vType id="vType_car_64.2854530726957" accel="1.0" decel="5.0" sigma="0.0" length="4.5" maxSpeed="17.857070297971028" /><vType id="vType_car_3.8250557331727566" accel="1.0" decel="5.0" sigma="0.0" length="4.5" maxSpeed="1.062515481436877" /><vType id="vType_car_9.169491102350042" accel="1.0" decel="5.0" sigma="0.0" length="4.5" maxSpeed="2.5470808617639005" /><vType id="vType_car_31.62713446025743" accel="1.0" decel="5.0" sigma="0.0" length="4.5" maxSpeed="8.785315127849286" /><vType id="vType_car_10.695020703564648" accel="1.0" decel="5.0" sigma="0.0" length="4.5" maxSpeed="2.9708390843235133" /><vType id="vType_car_11.79724323592165" accel="1.0" decel="5.0" sigma="0.0" length="4.5" maxSpeed="3.277012009978236" /><vType id="vType_car_3.8603414136717586" accel="1.0" decel="5.0" sigma="0.0" length="4.5" maxSpeed="1.0723170593532663" /><vType id="vType_car_12.155629400929715" accel="1.0" decel="5.0" sigma="0.0" length="4.5" maxSpeed="3.3765637224804763" /><vType id="vType_car_26.819976392552203" accel="1.0" decel="5.0" sigma="0.0" length="4.5" maxSpeed="7.449993442375612" /><vType id="vType_car_16.130583114663292" accel="1.0" decel="5.0" sigma="0.0" length="4.5" maxSpeed="4.480717531850915" /><vType id="vType_car_13.046992139156838" accel="1.0" decel="5.0" sigma="0.0" length="4.5" maxSpeed="3.6241644830991215" /><vType id="vType_car_20.178804046639414" accel="1.0" decel="5.0" sigma="0.0" length="4.5" maxSpeed="5.605223346288726" /><vType id="vType_car_5.164870064274084" accel="1.0" decel="5.0" sigma="0.0" length="4.5" maxSpeed="1.4346861289650235" /><vType id="vType_car_13.843479806682495" accel="1.0" decel="5.0" sigma="0.0" length="4.5" maxSpeed="3.845411057411804" /><vType id="vType_car_18.58424453279025" accel="1.0" decel="5.0" sigma="0.0" length="4.5" maxSpeed="5.162290147997292" /><vType id="vType_car_11.979584479922721" accel="1.0" decel="5.0" sigma="0.0" length="4.5" maxSpeed="3.327662355534089" /><vType id="vType_car_6.223417853943155" accel="1.0" decel="5.0" sigma="0.0" length="4.5" maxSpeed="1.7287271816508762" /><vType id="vType_car_4.970798210963969" accel="1.0" decel="5.0" sigma="0.0" length="4.5" maxSpeed="1.3807772808233247" /><vType id="vType_truck_23.75195572281999" accel="1.0" decel="5.0" sigma="0.0" length="8" maxSpeed="6.597765478561108" /><vType id="vType_car_11.09310463065497" accel="1.0" decel="5.0" sigma="0.0" length="4.5" maxSpeed="3.081417952959714" /><vType id="vType_car_28.981251324605687" accel="1.0" decel="5.0" sigma="0.0" length="4.5" maxSpeed="8.050347590168245" /><vType id="vType_truck_15.11055634561956" accel="1.0" decel="5.0" sigma="0.0" length="8" maxSpeed="4.1973767626721" /><vType id="vType_car_12.461064873823304" accel="1.0" decel="5.0" sigma="0.0" length="4.5" maxSpeed="3.461406909395362" /><vType id="vType_car_8.380947872522425" accel="1.0" decel="5.0" sigma="0.0" length="4.5" maxSpeed="2.3280410757006735" /><vType id="vType_car_9.786458326121044" accel="1.0" decel="5.0" sigma="0.0" length="4.5" maxSpeed="2.7184606461447345" /><vType id="vType_car_34.19618674770129" accel="1.0" decel="5.0" sigma="0.0" length="4.5" maxSpeed="9.498940763250358" /><vType id="vType_car_4.59790161938618" accel="1.0" decel="5.0" sigma="0.0" length="4.5" maxSpeed="1.2771948942739388" /><vType id="vType_car_6.71388425445645" accel="1.0" decel="5.0" sigma="0.0" length="4.5" maxSpeed="1.8649678484601249" /><vType id="vType_car_48.13288079208586" accel="1.0" decel="5.0" sigma="0.0" length="4.5" maxSpeed="13.370244664468293" /><route id="route_north_to_east" edges="north_to_center center_to_east" /><route id="route_north_to_south" edges="north_to_center center_to_south" /><route id="route_north_to_west" edges="north_to_center center_to_west" /><route id="route_east_to_west" edges="east_to_center center_to_west" /><route id="route_east_to_south" edges="east_to_center center_to_south" /><route id="route_east_to_north" edges="east_to_center center_to_north" /><route id="route_south_to_west" edges="south_to_center center_to_west" /><route id="route_south_to_north" edges="south_to_center center_to_north" /><route id="route_south_to_east" edges="south_to_center center_to_east" /><route id="route_west_to_south" edges="west_to_center center_to_south" /><route id="route_west_to_north" edges="west_to_center center_to_north" /><route id="route_west_to_east" edges="west_to_center center_to_east" /><vehicle id="veh186" type="vType_car_6.3309772643375615" route="route_east_to_north" depart="0.03" /><vehicle id="veh195" type="vType_car_12.332534797978049" route="route_north_to_south" depart="0.03" /><vehicle id="veh172" type="vType_car_30.362171923515046" route="route_east_to_west" depart="0.03" /><vehicle id="veh196" type="vType_car_9.11004247910951" route="route_east_to_north" depart="0.03" /><vehicle id="veh222" type="vType_car_26.523091750276528" route="route_east_to_west" depart="1.00" /><vehicle id="veh223" type="vType_car_26.879090557621158" route="route_east_to_south" depart="4.07" /><vehicle id="veh224" type="vType_car_9.315568044674528" route="route_east_to_north" depart="4.37" /><vehicle id="veh225" type="vType_car_9.476309091006383" route="route_east_to_north" depart="8.04" /><vehicle id="veh227" type="vType_car_34.06889978335676" route="route_east_to_west" depart="8.81" /><vehicle id="veh230" type="vType_car_12.013017634108055" route="route_east_to_north" depart="10.81" /><vehicle id="veh233" type="vType_car_31.66797197159832" route="route_east_to_west" depart="12.44" /><vehicle id="veh234" type="vType_car_7.526183900301035" route="route_east_to_north" depart="13.54" /><vehicle id="veh235" type="vType_car_31.34295521430059" route="route_east_to_west" depart="14.11" /><vehicle id="veh236" type="vType_car_11.342648727512117" route="route_east_to_north" depart="14.51" /><vehicle id="veh239" type="vType_car_28.928947807750976" route="route_east_to_west" depart="16.54" /><vehicle id="veh241" type="vType_car_19.65149117670965" route="route_west_to_south" depart="19.75" /><vehicle id="veh242" type="vType_car_8.002686868089514" route="route_east_to_north" depart="22.68" /><vehicle id="veh243" type="vType_car_64.2854530726957" route="route_west_to_east" depart="24.65" /><vehicle id="veh245" type="vType_car_9.169491102350042" route="route_east_to_north" depart="26.92" /><vehicle id="veh247" type="vType_car_31.62713446025743" route="route_west_to_south" depart="28.32" /><vehicle id="veh252" type="vType_car_11.79724323592165" route="route_east_to_north" depart="30.55" /><vehicle id="veh255" type="vType_car_12.155629400929715" route="route_east_to_north" depart="32.25" /><vehicle id="veh254" type="vType_car_26.819976392552203" route="route_west_to_south" depart="32.65" /><vehicle id="veh257" type="vType_car_16.130583114663292" route="route_north_to_east" depart="35.12" /><vehicle id="veh258" type="vType_car_13.046992139156838" route="route_east_to_north" depart="36.09" /><vehicle id="veh260" type="vType_car_20.178804046639414" route="route_north_to_south" depart="38.39" /><vehicle id="veh263" type="vType_car_13.843479806682495" route="route_north_to_east" depart="40.13" /><vehicle id="veh265" type="vType_car_18.58424453279025" route="route_north_to_east" depart="41.36" /><vehicle id="veh267" type="vType_car_11.979584479922721" route="route_west_to_south" depart="41.63" /><vehicle id="veh273" type="vType_car_11.09310463065497" route="route_east_to_north" depart="50.83" /><vehicle id="veh274" type="vType_car_28.981251324605687" route="route_south_to_west" depart="51.90" /><vehicle id="veh278" type="vType_car_12.461064873823304" route="route_east_to_north" depart="52.67" /><vehicle id="veh282" type="vType_car_34.19618674770129" route="route_south_to_west" depart="55.87" /></routes>