<?xml version='1.0' encoding='utf-8'?>
<routes><vType id="vType_car_17.226385965292618" accel="1.0" decel="5.0" sigma="0.0" length="4.5" maxSpeed="4.785107212581282" /><vType id="vType_truck_77.14081407098818" accel="1.0" decel="5.0" sigma="0.0" length="8" maxSpeed="21.428003908607828" /><vType id="vType_truck_72.08300784320664" accel="1.0" decel="5.0" sigma="0.0" length="8" maxSpeed="20.023057734224068" /><vType id="vType_car_19.571379986770882" accel="1.0" decel="5.0" sigma="0.0" length="4.5" maxSpeed="5.43649444076969" /><vType id="vType_truck_8.420425268459235" accel="1.0" decel="5.0" sigma="0.0" length="8" maxSpeed="2.3390070190164542" /><vType id="vType_car_19.586026815474245" accel="1.0" decel="5.0" sigma="0.0" length="4.5" maxSpeed="5.440563004298402" /><vType id="vType_car_24.382307165594696" accel="1.0" decel="5.0" sigma="0.0" length="4.5" maxSpeed="6.772863101554082" /><vType id="vType_car_3.84247156384719" accel="1.0" decel="5.0" sigma="0.0" length="4.5" maxSpeed="1.067353212179775" /><vType id="vType_car_10.377142895340821" accel="1.0" decel="5.0" sigma="0.0" length="4.5" maxSpeed="2.882539693150228" /><vType id="vType_car_4.14711206468948" accel="1.0" decel="5.0" sigma="0.0" length="4.5" maxSpeed="1.1519755735248556" /><vType id="vType_car_4.847366999188682" accel="1.0" decel="5.0" sigma="0.0" length="4.5" maxSpeed="1.3464908331079672" /><vType id="vType_car_19.70121819599991" accel="1.0" decel="5.0" sigma="0.0" length="4.5" maxSpeed="5.472560609999975" /><vType id="vType_car_3.7579623242877083" accel="1.0" decel="5.0" sigma="0.0" length="4.5" maxSpeed="1.0438784234132523" /><vType id="vType_car_9.239588247826369" accel="1.0" decel="5.0" sigma="0.0" length="4.5" maxSpeed="2.56655229106288" /><vType id="vType_car_12.57042528729465" accel="1.0" decel="5.0" sigma="0.0" length="4.5" maxSpeed="3.4917848020262916" /><vType id="vType_car_23.806152747784758" accel="1.0" decel="5.0" sigma="0.0" length="4.5" maxSpeed="6.612820207717988" /><vType id="vType_car_4.303242359530371" accel="1.0" decel="5.0" sigma="0.0" length="4.5" maxSpeed="1.1953450998695474" /><vType id="vType_car_22.056149695345656" accel="1.0" decel="5.0" sigma="0.0" length="4.5" maxSpeed="6.126708248707127" /><vType id="vType_car_19.729312855332203" accel="1.0" decel="5.0" sigma="0.0" length="4.5" maxSpeed="5.480364682036723" /><vType id="vType_car_26.232200822571528" accel="1.0" decel="5.0" sigma="0.0" length="4.5" maxSpeed="7.286722450714313" /><vType id="vType_car_15.73773486569653" accel="1.0" decel="5.0" sigma="0.0" length="4.5" maxSpeed="4.371593018249036" /><vType id="vType_car_34.74220556862297" accel="1.0" decel="5.0" sigma="0.0" length="4.5" maxSpeed="9.650612657950825" /><vType id="vType_car_4.578819430009872" accel="1.0" decel="5.0" sigma="0.0" length="4.5" maxSpeed="1.2718942861138534" /><vType id="vType_car_4.967632138978709" accel="1.0" decel="5.0" sigma="0.0" length="4.5" maxSpeed="1.3798978163829745" /><vType id="vType_car_4.935935336142587" accel="1.0" decel="5.0" sigma="0.0" length="4.5" maxSpeed="1.3710931489284965" /><vType id="vType_car_8.403059213990426" accel="1.0" decel="5.0" sigma="0.0" length="4.5" maxSpeed="2.3341831149973404" /><vType id="vType_car_13.374237659858256" accel="1.0" decel="5.0" sigma="0.0" length="4.5" maxSpeed="3.715066016627293" /><vType id="vType_car_6.411968212644913" accel="1.0" decel="5.0" sigma="0.0" length="4.5" maxSpeed="1.7811022812902535" /><route id="route_north_to_east" edges="north_to_center center_to_east" /><route id="route_north_to_south" edges="north_to_center center_to_south" /><route id="route_north_to_west" edges="north_to_center center_to_west" /><route id="route_east_to_west" edges="east_to_center center_to_west" /><route id="route_east_to_south" edges="east_to_center center_to_south" /><route id="route_east_to_north" edges="east_to_center center_to_north" /><route id="route_south_to_west" edges="south_to_center center_to_west" /><route id="route_south_to_north" edges="south_to_center center_to_north" /><route id="route_south_to_east" edges="south_to_center center_to_east" /><route id="route_west_to_south" edges="west_to_center center_to_south" /><route id="route_west_to_north" edges="west_to_center center_to_north" /><route id="route_west_to_east" edges="west_to_center center_to_east" /><vehicle id="veh158" type="vType_car_17.226385965292618" route="route_south_to_north" depart="1.21" /><vehicle id="veh160" type="vType_truck_77.14081407098818" route="route_west_to_east" depart="8.82" /><vehicle id="veh162" type="vType_truck_72.08300784320664" route="route_west_to_east" depart="10.76" /><vehicle id="veh163" type="vType_car_19.571379986770882" route="route_west_to_east" depart="13.55" /><vehicle id="veh165" type="vType_car_19.586026815474245" route="route_west_to_east" depart="15.66" /><vehicle id="veh166" type="vType_car_24.382307165594696" route="route_south_to_east" depart="15.73" /><vehicle id="veh171" type="vType_car_19.70121819599991" route="route_east_to_west" depart="23.50" /><vehicle id="veh173" type="vType_car_9.239588247826369" route="route_east_to_north" depart="24.88" /><vehicle id="veh174" type="vType_car_12.57042528729465" route="route_east_to_south" depart="27.49" /><vehicle id="veh176" type="vType_car_23.806152747784758" route="route_west_to_east" depart="28.80" /><vehicle id="veh178" type="vType_car_22.056149695345656" route="route_west_to_east" depart="33.03" /><vehicle id="veh180" type="vType_car_19.729312855332203" route="route_north_to_west" depart="34.13" /><vehicle id="veh182" type="vType_car_26.232200822571528" route="route_west_to_east" depart="35.54" /><vehicle id="veh184" type="vType_car_15.73773486569653" route="route_north_to_west" depart="39.70" /><vehicle id="veh185" type="vType_car_34.74220556862297" route="route_west_to_east" depart="40.10" /><vehicle id="veh190" type="vType_car_13.374237659858256" route="route_east_to_north" depart="53.71" /></routes>