<?xml version='1.0' encoding='utf-8'?>
<routes><vType id="vType_car_16.68829382296287" accel="1.0" decel="5.0" sigma="0.0" length="4.5" maxSpeed="4.635637173045241" /><vType id="vType_car_21.81458674805566" accel="1.0" decel="5.0" sigma="0.0" length="4.5" maxSpeed="6.059607430015461" /><vType id="vType_car_11.231973961535173" accel="1.0" decel="5.0" sigma="0.0" length="4.5" maxSpeed="3.1199927670931036" /><vType id="vType_car_4.255985111477961" accel="1.0" decel="5.0" sigma="0.0" length="4.5" maxSpeed="1.1822180865216558" /><vType id="vType_car_12.332904529792648" accel="1.0" decel="5.0" sigma="0.0" length="4.5" maxSpeed="3.425806813831291" /><vType id="vType_car_41.368046621345954" accel="1.0" decel="5.0" sigma="0.0" length="4.5" maxSpeed="11.491124061484987" /><vType id="vType_car_3.944698891414113" accel="1.0" decel="5.0" sigma="0.0" length="4.5" maxSpeed="1.0957496920594758" /><vType id="vType_car_3.0660155938897713" accel="1.0" decel="5.0" sigma="0.0" length="4.5" maxSpeed="0.8516709983027142" /><vType id="vType_car_3.389796208290191" accel="1.0" decel="5.0" sigma="0.0" length="4.5" maxSpeed="0.9416100578583864" /><route id="route_north_to_east" edges="north_to_center center_to_east" /><route id="route_north_to_south" edges="north_to_center center_to_south" /><route id="route_north_to_west" edges="north_to_center center_to_west" /><route id="route_east_to_west" edges="east_to_center center_to_west" /><route id="route_east_to_south" edges="east_to_center center_to_south" /><route id="route_east_to_north" edges="east_to_center center_to_north" /><route id="route_south_to_west" edges="south_to_center center_to_west" /><route id="route_south_to_north" edges="south_to_center center_to_north" /><route id="route_south_to_east" edges="south_to_center center_to_east" /><route id="route_west_to_south" edges="west_to_center center_to_south" /><route id="route_west_to_north" edges="west_to_center center_to_north" /><route id="route_west_to_east" edges="west_to_center center_to_east" /><vehicle id="veh153" type="vType_car_16.68829382296287" route="route_north_to_east" depart="0.04" /><vehicle id="veh182" type="vType_car_21.81458674805566" route="route_north_to_west" depart="5.83" /><vehicle id="veh185" type="vType_car_11.231973961535173" route="route_south_to_east" depart="14.80" /><vehicle id="veh190" type="vType_car_41.368046621345954" route="route_west_to_east" depart="39.54" /></routes>