<?xml version='1.0' encoding='utf-8'?>
<routes><vType id="vType_car_26.826442447528127" accel="1.0" decel="5.0" sigma="0.0" length="4.5" maxSpeed="7.451789568757813" /><vType id="vType_car_12.164615369930793" accel="1.0" decel="5.0" sigma="0.0" length="4.5" maxSpeed="3.379059824980776" /><vType id="vType_car_18.026352262647176" accel="1.0" decel="5.0" sigma="0.0" length="4.5" maxSpeed="5.007320072957548" /><vType id="vType_car_13.783718205811477" accel="1.0" decel="5.0" sigma="0.0" length="4.5" maxSpeed="3.8288106127254102" /><vType id="vType_car_18.475286197229437" accel="1.0" decel="5.0" sigma="0.0" length="4.5" maxSpeed="5.132023943674843" /><vType id="vType_car_23.811083868470668" accel="1.0" decel="5.0" sigma="0.0" length="4.5" maxSpeed="6.614189963464074" /><vType id="vType_car_17.42344021693637" accel="1.0" decel="5.0" sigma="0.0" length="4.5" maxSpeed="4.839844504704547" /><vType id="vType_car_16.59228310737606" accel="1.0" decel="5.0" sigma="0.0" length="4.5" maxSpeed="4.608967529826683" /><vType id="vType_car_17.295449809631283" accel="1.0" decel="5.0" sigma="0.0" length="4.5" maxSpeed="4.804291613786467" /><vType id="vType_car_29.48677046594021" accel="1.0" decel="5.0" sigma="0.0" length="4.5" maxSpeed="8.19076957387228" /><vType id="vType_car_14.345484097098447" accel="1.0" decel="5.0" sigma="0.0" length="4.5" maxSpeed="3.9848566936384575" /><vType id="vType_car_28.11823591747099" accel="1.0" decel="5.0" sigma="0.0" length="4.5" maxSpeed="7.810621088186386" /><vType id="vType_car_15.550895047058003" accel="1.0" decel="5.0" sigma="0.0" length="4.5" maxSpeed="4.319693068627223" /><vType id="vType_car_30.190244268884598" accel="1.0" decel="5.0" sigma="0.0" length="4.5" maxSpeed="8.386178963579054" /><vType id="vType_car_8.232972761841113" accel="1.0" decel="5.0" sigma="0.0" length="4.5" maxSpeed="2.286936878289198" /><vType id="vType_car_18.178554091770543" accel="1.0" decel="5.0" sigma="0.0" length="4.5" maxSpeed="5.0495983588251505" /><vType id="vType_car_7.7184211587380505" accel="1.0" decel="5.0" sigma="0.0" length="4.5" maxSpeed="2.144005877427236" /><vType id="vType_car_12.210541821325913" accel="1.0" decel="5.0" sigma="0.0" length="4.5" maxSpeed="3.3918171725905313" /><vType id="vType_car_28.89197556603498" accel="1.0" decel="5.0" sigma="0.0" length="4.5" maxSpeed="8.02554876834305" /><vType id="vType_car_28.48722607746212" accel="1.0" decel="5.0" sigma="0.0" length="4.5" maxSpeed="7.913118354850589" /><vType id="vType_car_3.279781121946339" accel="1.0" decel="5.0" sigma="0.0" length="4.5" maxSpeed="0.9110503116517609" /><vType id="vType_car_12.925045543708272" accel="1.0" decel="5.0" sigma="0.0" length="4.5" maxSpeed="3.590290428807853" /><vType id="vType_car_8.629949393060475" accel="1.0" decel="5.0" sigma="0.0" length="4.5" maxSpeed="2.3972081647390207" /><vType id="vType_car_8.427896435859877" accel="1.0" decel="5.0" sigma="0.0" length="4.5" maxSpeed="2.3410823432944103" /><vType id="vType_car_12.896569896703546" accel="1.0" decel="5.0" sigma="0.0" length="4.5" maxSpeed="3.5823805268620963" /><vType id="vType_car_8.382934006807037" accel="1.0" decel="5.0" sigma="0.0" length="4.5" maxSpeed="2.328592779668621" /><vType id="vType_car_34.69868714906404" accel="1.0" decel="5.0" sigma="0.0" length="4.5" maxSpeed="9.638524208073346" /><vType id="vType_car_25.471022549588405" accel="1.0" decel="5.0" sigma="0.0" length="4.5" maxSpeed="7.075284041552335" /><vType id="vType_car_2.5776202951049396" accel="1.0" decel="5.0" sigma="0.0" length="4.5" maxSpeed="0.7160056375291499" /><vType id="vType_car_19.796311783255018" accel="1.0" decel="5.0" sigma="0.0" length="4.5" maxSpeed="5.498975495348616" /><vType id="vType_car_5.3445928487928835" accel="1.0" decel="5.0" sigma="0.0" length="4.5" maxSpeed="1.4846091246646897" /><vType id="vType_car_15.060207799277881" accel="1.0" decel="5.0" sigma="0.0" length="4.5" maxSpeed="4.183391055354967" /><vType id="vType_car_2.9877182304900356" accel="1.0" decel="5.0" sigma="0.0" length="4.5" maxSpeed="0.8299217306916765" /><vType id="vType_car_23.00390964408209" accel="1.0" decel="5.0" sigma="0.0" length="4.5" maxSpeed="6.389974901133914" /><vType id="vType_car_24.62044681506761" accel="1.0" decel="5.0" sigma="0.0" length="4.5" maxSpeed="6.839013004185447" /><vType id="vType_car_12.9203428863005" accel="1.0" decel="5.0" sigma="0.0" length="4.5" maxSpeed="3.588984135083472" /><vType id="vType_car_25.811303826231008" accel="1.0" decel="5.0" sigma="0.0" length="4.5" maxSpeed="7.1698066183975016" /><vType id="vType_car_20.440914611510138" accel="1.0" decel="5.0" sigma="0.0" length="4.5" maxSpeed="5.678031836530594" /><vType id="vType_car_3.7791978460625764" accel="1.0" decel="5.0" sigma="0.0" length="4.5" maxSpeed="1.0497771794618267" /><vType id="vType_car_29.749749959518326" accel="1.0" decel="5.0" sigma="0.0" length="4.5" maxSpeed="8.263819433199535" /><vType id="vType_car_12.77634293940026" accel="1.0" decel="5.0" sigma="0.0" length="4.5" maxSpeed="3.5489841498334056" /><vType id="vType_car_33.07180651595179" accel="1.0" decel="5.0" sigma="0.0" length="4.5" maxSpeed="9.18661292109772" /><vType id="vType_car_20.42767747297768" accel="1.0" decel="5.0" sigma="0.0" length="4.5" maxSpeed="5.674354853604911" /><vType id="vType_car_39.35228952825541" accel="1.0" decel="5.0" sigma="0.0" length="4.5" maxSpeed="10.931191535626503" /><vType id="vType_car_4.708171119283404" accel="1.0" decel="5.0" sigma="0.0" length="4.5" maxSpeed="1.3078253109120566" /><vType id="vType_car_42.80276435507661" accel="1.0" decel="5.0" sigma="0.0" length="4.5" maxSpeed="11.889656765299058" /><vType id="vType_car_4.823315456708954" accel="1.0" decel="5.0" sigma="0.0" length="4.5" maxSpeed="1.3398098490858206" /><vType id="vType_car_18.733144993048473" accel="1.0" decel="5.0" sigma="0.0" length="4.5" maxSpeed="5.203651386957909" /><vType id="vType_car_8.90038880030631" accel="1.0" decel="5.0" sigma="0.0" length="4.5" maxSpeed="2.472330222307308" /><vType id="vType_car_15.556867362504482" accel="1.0" decel="5.0" sigma="0.0" length="4.5" maxSpeed="4.3213520451401335" /><vType id="vType_car_36.96201855480768" accel="1.0" decel="5.0" sigma="0.0" length="4.5" maxSpeed="10.267227376335466" /><vType id="vType_car_5.107078155271145" accel="1.0" decel="5.0" sigma="0.0" length="4.5" maxSpeed="1.4186328209086514" /><vType id="vType_car_29.760719245585207" accel="1.0" decel="5.0" sigma="0.0" length="4.5" maxSpeed="8.266866457107001" /><vType id="vType_car_16.13948732623739" accel="1.0" decel="5.0" sigma="0.0" length="4.5" maxSpeed="4.48319092395483" /><vType id="vType_car_3.2094857656616607" accel="1.0" decel="5.0" sigma="0.0" length="4.5" maxSpeed="0.8915238237949057" /><vType id="vType_car_7.454954992484815" accel="1.0" decel="5.0" sigma="0.0" length="4.5" maxSpeed="2.070820831245782" /><vType id="vType_car_19.957997116393702" accel="1.0" decel="5.0" sigma="0.0" length="4.5" maxSpeed="5.543888087887139" /><vType id="vType_car_7.3345698511128745" accel="1.0" decel="5.0" sigma="0.0" length="4.5" maxSpeed="2.037380514198021" /><vType id="vType_car_21.402200476652986" accel="1.0" decel="5.0" sigma="0.0" length="4.5" maxSpeed="5.9450556879591625" /><vType id="vType_car_7.881313558151616" accel="1.0" decel="5.0" sigma="0.0" length="4.5" maxSpeed="2.1892537661532265" /><vType id="vType_car_21.11137345368941" accel="1.0" decel="5.0" sigma="0.0" length="4.5" maxSpeed="5.864270403802614" /><vType id="vType_car_40.71833735877409" accel="1.0" decel="5.0" sigma="0.0" length="4.5" maxSpeed="11.310649266326136" /><vType id="vType_car_18.56851052953001" accel="1.0" decel="5.0" sigma="0.0" length="4.5" maxSpeed="5.157919591536113" /><vType id="vType_car_15.22330627759329" accel="1.0" decel="5.0" sigma="0.0" length="4.5" maxSpeed="4.228696188220358" /><vType id="vType_car_4.7239973075782205" accel="1.0" decel="5.0" sigma="0.0" length="4.5" maxSpeed="1.3122214743272835" /><vType id="vType_car_16.89080265337817" accel="1.0" decel="5.0" sigma="0.0" length="4.5" maxSpeed="4.691889625938381" /><vType id="vType_car_16.60394216822693" accel="1.0" decel="5.0" sigma="0.0" length="4.5" maxSpeed="4.612206157840814" /><vType id="vType_car_9.316891346100913" accel="1.0" decel="5.0" sigma="0.0" length="4.5" maxSpeed="2.58802537391692" /><vType id="vType_car_29.573006724649336" accel="1.0" decel="5.0" sigma="0.0" length="4.5" maxSpeed="8.21472409018037" /><vType id="vType_car_10.243094792107131" accel="1.0" decel="5.0" sigma="0.0" length="4.5" maxSpeed="2.8453041089186475" /><vType id="vType_bus_20.53257425936965" accel="1.0" decel="5.0" sigma="0.0" length="13" maxSpeed="5.703492849824903" /><vType id="vType_car_20.87893140918096" accel="1.0" decel="5.0" sigma="0.0" length="4.5" maxSpeed="5.799703169216934" /><vType id="vType_car_4.293194175162552" accel="1.0" decel="5.0" sigma="0.0" length="4.5" maxSpeed="1.1925539375451533" /><vType id="vType_car_11.655941347381892" accel="1.0" decel="5.0" sigma="0.0" length="4.5" maxSpeed="3.2377614853838588" /><vType id="vType_car_36.573981923819844" accel="1.0" decel="5.0" sigma="0.0" length="4.5" maxSpeed="10.15943942328329" /><vType id="vType_car_10.997872223246715" accel="1.0" decel="5.0" sigma="0.0" length="4.5" maxSpeed="3.0549645064574205" /><vType id="vType_car_14.534896616608414" accel="1.0" decel="5.0" sigma="0.0" length="4.5" maxSpeed="4.037471282391226" /><vType id="vType_car_16.28522682509072" accel="1.0" decel="5.0" sigma="0.0" length="4.5" maxSpeed="4.523674118080756" /><vType id="vType_car_19.681400600516326" accel="1.0" decel="5.0" sigma="0.0" length="4.5" maxSpeed="5.467055722365646" /><vType id="vType_car_18.60788479455156" accel="1.0" decel="5.0" sigma="0.0" length="4.5" maxSpeed="5.168856887375433" /><vType id="vType_car_5.027664693568883" accel="1.0" decel="5.0" sigma="0.0" length="4.5" maxSpeed="1.3965735259913563" /><vType id="vType_car_33.73907595704624" accel="1.0" decel="5.0" sigma="0.0" length="4.5" maxSpeed="9.371965543623956" /><vType id="vType_car_32.786268669825425" accel="1.0" decel="5.0" sigma="0.0" length="4.5" maxSpeed="9.107296852729284" /><vType id="vType_car_48.930634022011645" accel="1.0" decel="5.0" sigma="0.0" length="4.5" maxSpeed="13.591842783892123" /><vType id="vType_car_21.379119390586485" accel="1.0" decel="5.0" sigma="0.0" length="4.5" maxSpeed="5.938644275162912" /><vType id="vType_car_14.091544993232473" accel="1.0" decel="5.0" sigma="0.0" length="4.5" maxSpeed="3.9143180536756867" /><vType id="vType_car_18.359802576744976" accel="1.0" decel="5.0" sigma="0.0" length="4.5" maxSpeed="5.0999451602069374" /><vType id="vType_car_42.87654144625664" accel="1.0" decel="5.0" sigma="0.0" length="4.5" maxSpeed="11.910150401737955" /><vType id="vType_car_10.035053048065556" accel="1.0" decel="5.0" sigma="0.0" length="4.5" maxSpeed="2.7875147355737657" /><vType id="vType_car_24.323754999254867" accel="1.0" decel="5.0" sigma="0.0" length="4.5" maxSpeed="6.756598610904129" /><vType id="vType_car_29.570105032843298" accel="1.0" decel="5.0" sigma="0.0" length="4.5" maxSpeed="8.213918064678694" /><vType id="vType_car_29.332803094111004" accel="1.0" decel="5.0" sigma="0.0" length="4.5" maxSpeed="8.148000859475278" /><vType id="vType_car_36.62778194335254" accel="1.0" decel="5.0" sigma="0.0" length="4.5" maxSpeed="10.174383873153483" /><vType id="vType_car_27.43666237828277" accel="1.0" decel="5.0" sigma="0.0" length="4.5" maxSpeed="7.621295105078547" /><vType id="vType_car_35.18568253023679" accel="1.0" decel="5.0" sigma="0.0" length="4.5" maxSpeed="9.773800702843552" /><vType id="vType_car_26.31609895255614" accel="1.0" decel="5.0" sigma="0.0" length="4.5" maxSpeed="7.3100274868211494" /><vType id="vType_car_27.672307525212986" accel="1.0" decel="5.0" sigma="0.0" length="4.5" maxSpeed="7.68675209033694" /><vType id="vType_car_8.343976052987202" accel="1.0" decel="5.0" sigma="0.0" length="4.5" maxSpeed="2.317771125829778" /><vType id="vType_car_31.911259017732895" accel="1.0" decel="5.0" sigma="0.0" length="4.5" maxSpeed="8.864238616036916" /><vType id="vType_car_21.4328572776001" accel="1.0" decel="5.0" sigma="0.0" length="4.5" maxSpeed="5.953571466000027" /><vType id="vType_car_29.51885694286569" accel="1.0" decel="5.0" sigma="0.0" length="4.5" maxSpeed="8.199682484129358" /><vType id="vType_car_26.687651536568882" accel="1.0" decel="5.0" sigma="0.0" length="4.5" maxSpeed="7.4132365379358" /><vType id="vType_car_23.114346320160838" accel="1.0" decel="5.0" sigma="0.0" length="4.5" maxSpeed="6.4206517556002325" /><vType id="vType_car_18.31731187763352" accel="1.0" decel="5.0" sigma="0.0" length="4.5" maxSpeed="5.088142188231534" /><vType id="vType_car_33.698448309080945" accel="1.0" decel="5.0" sigma="0.0" length="4.5" maxSpeed="9.360680085855817" /><vType id="vType_car_30.459368213350224" accel="1.0" decel="5.0" sigma="0.0" length="4.5" maxSpeed="8.460935614819507" /><vType id="vType_car_15.227532939093413" accel="1.0" decel="5.0" sigma="0.0" length="4.5" maxSpeed="4.229870260859281" /><vType id="vType_car_31.15202725571059" accel="1.0" decel="5.0" sigma="0.0" length="4.5" maxSpeed="8.653340904364052" /><vType id="vType_car_31.67543256363845" accel="1.0" decel="5.0" sigma="0.0" length="4.5" maxSpeed="8.798731267677347" /><vType id="vType_car_2.633161675478983" accel="1.0" decel="5.0" sigma="0.0" length="4.5" maxSpeed="0.7314337987441619" /><vType id="vType_car_9.307907805175057" accel="1.0" decel="5.0" sigma="0.0" length="4.5" maxSpeed="2.5855299458819605" /><vType id="vType_car_40.34499289665272" accel="1.0" decel="5.0" sigma="0.0" length="4.5" maxSpeed="11.206942471292422" /><vType id="vType_car_4.169263905537005" accel="1.0" decel="5.0" sigma="0.0" length="4.5" maxSpeed="1.1581288626491681" /><vType id="vType_car_13.569050485111557" accel="1.0" decel="5.0" sigma="0.0" length="4.5" maxSpeed="3.7691806903087657" /><vType id="vType_car_11.485911882965551" accel="1.0" decel="5.0" sigma="0.0" length="4.5" maxSpeed="3.1905310786015417" /><vType id="vType_car_13.360112872945127" accel="1.0" decel="5.0" sigma="0.0" length="4.5" maxSpeed="3.7111424647069797" /><vType id="vType_car_20.68441338554981" accel="1.0" decel="5.0" sigma="0.0" length="4.5" maxSpeed="5.7456703848749475" /><vType id="vType_car_26.139143061602272" accel="1.0" decel="5.0" sigma="0.0" length="4.5" maxSpeed="7.260873072667298" /><vType id="vType_car_24.927207254593373" accel="1.0" decel="5.0" sigma="0.0" length="4.5" maxSpeed="6.9242242373870475" /><vType id="vType_car_33.259587588107756" accel="1.0" decel="5.0" sigma="0.0" length="4.5" maxSpeed="9.238774330029932" /><vType id="vType_car_12.42731376127061" accel="1.0" decel="5.0" sigma="0.0" length="4.5" maxSpeed="3.452031600352947" /><vType id="vType_car_7.71183293095333" accel="1.0" decel="5.0" sigma="0.0" length="4.5" maxSpeed="2.1421758141537026" /><vType id="vType_car_33.23118028142591" accel="1.0" decel="5.0" sigma="0.0" length="4.5" maxSpeed="9.230883411507197" /><vType id="vType_car_24.249841732287607" accel="1.0" decel="5.0" sigma="0.0" length="4.5" maxSpeed="6.736067147857669" /><vType id="vType_car_16.673213575211385" accel="1.0" decel="5.0" sigma="0.0" length="4.5" maxSpeed="4.631448215336496" /><vType id="vType_car_21.959522284569186" accel="1.0" decel="5.0" sigma="0.0" length="4.5" maxSpeed="6.099867301269218" /><vType id="vType_car_7.596974226993765" accel="1.0" decel="5.0" sigma="0.0" length="4.5" maxSpeed="2.110270618609379" /><vType id="vType_car_17.919091098377333" accel="1.0" decel="5.0" sigma="0.0" length="4.5" maxSpeed="4.977525305104814" /><vType id="vType_car_22.231183700535265" accel="1.0" decel="5.0" sigma="0.0" length="4.5" maxSpeed="6.17532880570424" /><vType id="vType_car_8.339806440320823" accel="1.0" decel="5.0" sigma="0.0" length="4.5" maxSpeed="2.3166129000891176" /><vType id="vType_car_31.571692102304894" accel="1.0" decel="5.0" sigma="0.0" length="4.5" maxSpeed="8.769914472862471" /><vType id="vType_car_3.1493315383854803" accel="1.0" decel="5.0" sigma="0.0" length="4.5" maxSpeed="0.874814316218189" /><vType id="vType_car_16.6945572717983" accel="1.0" decel="5.0" sigma="0.0" length="4.5" maxSpeed="4.637377019943972" /><vType id="vType_car_22.929259956892984" accel="1.0" decel="5.0" sigma="0.0" length="4.5" maxSpeed="6.369238876914718" /><vType id="vType_car_4.2178911375202786" accel="1.0" decel="5.0" sigma="0.0" length="4.5" maxSpeed="1.1716364270889663" /><vType id="vType_car_4.2503994679554" accel="1.0" decel="5.0" sigma="0.0" length="4.5" maxSpeed="1.1806665188764998" /><vType id="vType_car_9.461642601653192" accel="1.0" decel="5.0" sigma="0.0" length="4.5" maxSpeed="2.6282340560147754" /><vType id="vType_car_32.21028602103821" accel="1.0" decel="5.0" sigma="0.0" length="4.5" maxSpeed="8.947301672510614" /><vType id="vType_car_9.02921389950897" accel="1.0" decel="5.0" sigma="0.0" length="4.5" maxSpeed="2.508114972085825" /><vType id="vType_car_31.146633755216186" accel="1.0" decel="5.0" sigma="0.0" length="4.5" maxSpeed="8.651842709782274" /><route id="route_north_to_east" edges="north_to_center center_to_east" /><route id="route_north_to_south" edges="north_to_center center_to_south" /><route id="route_north_to_west" edges="north_to_center center_to_west" /><route id="route_east_to_west" edges="east_to_center center_to_west" /><route id="route_east_to_south" edges="east_to_center center_to_south" /><route id="route_east_to_north" edges="east_to_center center_to_north" /><route id="route_south_to_west" edges="south_to_center center_to_west" /><route id="route_south_to_north" edges="south_to_center center_to_north" /><route id="route_south_to_east" edges="south_to_center center_to_east" /><route id="route_west_to_south" edges="west_to_center center_to_south" /><route id="route_west_to_north" edges="west_to_center center_to_north" /><route id="route_west_to_east" edges="west_to_center center_to_east" /><vehicle id="veh1" type="vType_car_26.826442447528127" route="route_north_to_south" depart="0.03" /><vehicle id="veh2" type="vType_car_12.164615369930793" route="route_north_to_east" depart="0.03" /><vehicle id="veh5" type="vType_car_18.026352262647176" route="route_south_to_north" depart="1.13" /><vehicle id="veh7" type="vType_car_18.475286197229437" route="route_north_to_south" depart="5.90" /><vehicle id="veh8" type="vType_car_23.811083868470668" route="route_north_to_south" depart="6.03" /><vehicle id="veh10" type="vType_car_17.42344021693637" route="route_south_to_north" depart="6.97" /><vehicle id="veh11" type="vType_car_16.59228310737606" route="route_south_to_north" depart="7.33" /><vehicle id="veh14" type="vType_car_17.295449809631283" route="route_south_to_north" depart="9.94" /><vehicle id="veh16" type="vType_car_29.48677046594021" route="route_north_to_south" depart="10.57" /><vehicle id="veh20" type="vType_car_14.345484097098447" route="route_north_to_east" depart="11.50" /><vehicle id="veh21" type="vType_car_28.11823591747099" route="route_north_to_south" depart="11.74" /><vehicle id="veh22" type="vType_car_15.550895047058003" route="route_north_to_east" depart="12.87" /><vehicle id="veh24" type="vType_car_30.190244268884598" route="route_north_to_south" depart="15.07" /><vehicle id="veh25" type="vType_car_8.232972761841113" route="route_east_to_north" depart="16.60" /><vehicle id="veh27" type="vType_car_18.178554091770543" route="route_north_to_east" depart="18.30" /><vehicle id="veh29" type="vType_car_7.7184211587380505" route="route_east_to_north" depart="18.47" /><vehicle id="veh32" type="vType_car_12.210541821325913" route="route_west_to_north" depart="19.04" /><vehicle id="veh33" type="vType_car_28.89197556603498" route="route_north_to_south" depart="19.07" /><vehicle id="veh34" type="vType_car_28.48722607746212" route="route_north_to_south" depart="20.50" /><vehicle id="veh36" type="vType_car_12.925045543708272" route="route_west_to_south" depart="21.17" /><vehicle id="veh37" type="vType_car_8.629949393060475" route="route_east_to_north" depart="22.80" /><vehicle id="veh40" type="vType_car_12.896569896703546" route="route_west_to_south" depart="25.91" /><vehicle id="veh42" type="vType_car_8.382934006807037" route="route_east_to_north" depart="33.14" /><vehicle id="veh44" type="vType_car_34.69868714906404" route="route_south_to_west" depart="33.91" /><vehicle id="veh45" type="vType_car_25.471022549588405" route="route_south_to_north" depart="34.27" /><vehicle id="veh47" type="vType_car_19.796311783255018" route="route_north_to_south" depart="43.94" /><vehicle id="veh49" type="vType_car_15.060207799277881" route="route_north_to_east" depart="46.71" /><vehicle id="veh51" type="vType_car_23.00390964408209" route="route_north_to_south" depart="49.44" /><vehicle id="veh52" type="vType_car_24.62044681506761" route="route_north_to_south" depart="50.68" /><vehicle id="veh53" type="vType_car_12.9203428863005" route="route_north_to_east" depart="52.34" /><vehicle id="veh54" type="vType_car_25.811303826231008" route="route_north_to_south" depart="54.48" /><vehicle id="veh60" type="vType_car_29.749749959518326" route="route_north_to_south" depart="59.18" /><vehicle id="veh62" type="vType_car_12.77634293940026" route="route_north_to_east" depart="59.88" /><vehicle id="veh64" type="vType_car_33.07180651595179" route="route_north_to_south" depart="63.11" /><vehicle id="veh69" type="vType_car_20.42767747297768" route="route_south_to_north" depart="65.71" /><vehicle id="veh70" type="vType_car_39.35228952825541" route="route_south_to_west" depart="70.72" /><vehicle id="veh73" type="vType_car_42.80276435507661" route="route_north_to_south" depart="76.18" /><vehicle id="veh75" type="vType_car_18.733144993048473" route="route_north_to_south" depart="82.18" /><vehicle id="veh76" type="vType_car_8.90038880030631" route="route_east_to_north" depart="85.42" /><vehicle id="veh77" type="vType_car_15.556867362504482" route="route_west_to_north" depart="93.85" /><vehicle id="veh79" type="vType_car_36.96201855480768" route="route_south_to_north" depart="97.65" /><vehicle id="veh83" type="vType_car_16.13948732623739" route="route_north_to_east" depart="100.85" /><vehicle id="veh85" type="vType_car_7.454954992484815" route="route_east_to_north" depart="108.52" /><vehicle id="veh88" type="vType_car_19.957997116393702" route="route_west_to_north" depart="109.69" /><vehicle id="veh90" type="vType_car_7.3345698511128745" route="route_east_to_north" depart="112.02" /><vehicle id="veh92" type="vType_car_21.402200476652986" route="route_west_to_north" depart="113.89" /><vehicle id="veh93" type="vType_car_7.881313558151616" route="route_east_to_north" depart="114.22" /><vehicle id="veh96" type="vType_car_21.11137345368941" route="route_west_to_north" depart="116.76" /><vehicle id="veh98" type="vType_car_40.71833735877409" route="route_west_to_south" depart="118.36" /><vehicle id="veh99" type="vType_car_18.56851052953001" route="route_north_to_west" depart="121.56" /><vehicle id="veh100" type="vType_car_15.22330627759329" route="route_north_to_east" depart="122.73" /><vehicle id="veh102" type="vType_car_16.89080265337817" route="route_north_to_south" depart="126.46" /><vehicle id="veh103" type="vType_car_16.60394216822693" route="route_north_to_east" depart="129.39" /><vehicle id="veh105" type="vType_car_9.316891346100913" route="route_east_to_north" depart="130.36" /><vehicle id="veh106" type="vType_car_29.573006724649336" route="route_north_to_south" depart="133.63" /><vehicle id="veh107" type="vType_car_10.243094792107131" route="route_east_to_north" depart="134.70" /><vehicle id="veh109" type="vType_bus_20.53257425936965" route="route_north_to_east" depart="142.43" /><vehicle id="veh110" type="vType_car_20.87893140918096" route="route_north_to_west" depart="142.73" /><vehicle id="veh112" type="vType_car_11.655941347381892" route="route_north_to_east" depart="145.16" /><vehicle id="veh114" type="vType_car_36.573981923819844" route="route_north_to_south" depart="145.86" /><vehicle id="veh119" type="vType_car_14.534896616608414" route="route_south_to_north" depart="150.50" /><vehicle id="veh120" type="vType_car_16.28522682509072" route="route_north_to_east" depart="153.87" /><vehicle id="veh121" type="vType_car_19.681400600516326" route="route_south_to_north" depart="154.23" /><vehicle id="veh126" type="vType_car_33.73907595704624" route="route_west_to_east" depart="172.14" /><vehicle id="veh127" type="vType_car_32.786268669825425" route="route_east_to_west" depart="174.97" /><vehicle id="veh129" type="vType_car_48.930634022011645" route="route_west_to_east" depart="177.70" /><vehicle id="veh131" type="vType_car_21.379119390586485" route="route_west_to_south" depart="182.81" /><vehicle id="veh134" type="vType_car_18.359802576744976" route="route_west_to_north" depart="185.04" /><vehicle id="veh136" type="vType_car_42.87654144625664" route="route_east_to_west" depart="185.37" /><vehicle id="veh137" type="vType_car_10.035053048065556" route="route_east_to_north" depart="187.44" /><vehicle id="veh140" type="vType_car_24.323754999254867" route="route_south_to_north" depart="199.84" /><vehicle id="veh142" type="vType_car_29.570105032843298" route="route_south_to_north" depart="202.91" /><vehicle id="veh143" type="vType_car_29.332803094111004" route="route_south_to_north" depart="205.38" /><vehicle id="veh144" type="vType_car_36.62778194335254" route="route_south_to_west" depart="213.58" /><vehicle id="veh145" type="vType_car_27.43666237828277" route="route_north_to_west" depart="215.08" /><vehicle id="veh146" type="vType_car_35.18568253023679" route="route_north_to_south" depart="218.21" /><vehicle id="veh148" type="vType_car_26.31609895255614" route="route_north_to_west" depart="219.85" /><vehicle id="veh150" type="vType_car_27.672307525212986" route="route_north_to_south" depart="220.01" /><vehicle id="veh153" type="vType_car_31.911259017732895" route="route_north_to_south" depart="222.41" /><vehicle id="veh154" type="vType_car_21.4328572776001" route="route_north_to_east" depart="223.68" /><vehicle id="veh155" type="vType_car_29.51885694286569" route="route_north_to_south" depart="224.05" /><vehicle id="veh156" type="vType_car_26.687651536568882" route="route_north_to_south" depart="226.48" /><vehicle id="veh158" type="vType_car_18.31731187763352" route="route_north_to_east" depart="230.12" /><vehicle id="veh160" type="vType_car_33.698448309080945" route="route_north_to_south" depart="230.42" /><vehicle id="veh161" type="vType_car_30.459368213350224" route="route_north_to_south" depart="232.28" /><vehicle id="veh164" type="vType_car_15.227532939093413" route="route_north_to_east" depart="232.95" /><vehicle id="veh168" type="vType_car_31.15202725571059" route="route_north_to_south" depart="235.18" /><vehicle id="veh171" type="vType_car_31.67543256363845" route="route_north_to_south" depart="236.32" /><vehicle id="veh174" type="vType_car_40.34499289665272" route="route_north_to_south" depart="244.45" /><vehicle id="veh176" type="vType_car_13.569050485111557" route="route_north_to_east" depart="247.85" /><vehicle id="veh180" type="vType_car_20.68441338554981" route="route_north_to_west" depart="258.49" /><vehicle id="veh181" type="vType_car_26.139143061602272" route="route_north_to_south" depart="261.09" /><vehicle id="veh183" type="vType_car_24.927207254593373" route="route_north_to_south" depart="263.12" /><vehicle id="veh187" type="vType_car_33.259587588107756" route="route_south_to_north" depart="264.36" /><vehicle id="veh189" type="vType_car_12.42731376127061" route="route_north_to_east" depart="267.02" /><vehicle id="veh192" type="vType_car_7.71183293095333" route="route_east_to_north" depart="271.92" /><vehicle id="veh194" type="vType_car_33.23118028142591" route="route_south_to_north" depart="272.06" /><vehicle id="veh195" type="vType_car_24.249841732287607" route="route_south_to_west" depart="272.62" /><vehicle id="veh197" type="vType_car_16.673213575211385" route="route_north_to_east" depart="275.26" /><vehicle id="veh198" type="vType_car_21.959522284569186" route="route_south_to_west" depart="277.03" /><vehicle id="veh201" type="vType_car_7.596974226993765" route="route_east_to_north" depart="277.59" /><vehicle id="veh202" type="vType_car_17.919091098377333" route="route_north_to_east" depart="279.23" /><vehicle id="veh205" type="vType_car_22.231183700535265" route="route_north_to_west" depart="280.63" /><vehicle id="veh210" type="vType_car_31.571692102304894" route="route_north_to_south" depart="283.79" /><vehicle id="veh212" type="vType_car_16.6945572717983" route="route_north_to_east" depart="286.63" /><vehicle id="veh215" type="vType_car_22.929259956892984" route="route_north_to_west" depart="288.29" /><vehicle id="veh222" type="vType_car_9.461642601653192" route="route_east_to_north" depart="292.06" /></routes>