<?xml version='1.0' encoding='utf-8'?>
<routes><vType id="vType_car_43.55161832883093" accel="1.0" decel="5.0" sigma="0.0" length="4.5" maxSpeed="12.097671758008593" /><vType id="vType_car_3.9575266619479796" accel="1.0" decel="5.0" sigma="0.0" length="4.5" maxSpeed="1.0993129616522166" /><vType id="vType_car_4.506826069636771" accel="1.0" decel="5.0" sigma="0.0" length="4.5" maxSpeed="1.2518961304546588" /><vType id="vType_car_25.800779548346764" accel="1.0" decel="5.0" sigma="0.0" length="4.5" maxSpeed="7.1668832078741005" /><vType id="vType_car_3.77763908640489" accel="1.0" decel="5.0" sigma="0.0" length="4.5" maxSpeed="1.049344190668025" /><vType id="vType_car_3.609915953247436" accel="1.0" decel="5.0" sigma="0.0" length="4.5" maxSpeed="1.002754431457621" /><vType id="vType_car_5.024472696124143" accel="1.0" decel="5.0" sigma="0.0" length="4.5" maxSpeed="1.395686860034484" /><vType id="vType_car_3.8214198443495464" accel="1.0" decel="5.0" sigma="0.0" length="4.5" maxSpeed="1.0615055123193184" /><vType id="vType_car_3.496522787498697" accel="1.0" decel="5.0" sigma="0.0" length="4.5" maxSpeed="0.9712563298607492" /><vType id="vType_car_25.08564709756658" accel="1.0" decel="5.0" sigma="0.0" length="4.5" maxSpeed="6.968235304879605" /><vType id="vType_car_20.59246495290646" accel="1.0" decel="5.0" sigma="0.0" length="4.5" maxSpeed="5.720129153585128" /><vType id="vType_car_21.74590980199508" accel="1.0" decel="5.0" sigma="0.0" length="4.5" maxSpeed="6.040530500554189" /><vType id="vType_car_8.156157478707321" accel="1.0" decel="5.0" sigma="0.0" length="4.5" maxSpeed="2.2655992996409227" /><vType id="vType_car_14.374403579422022" accel="1.0" decel="5.0" sigma="0.0" length="4.5" maxSpeed="3.9928898831727837" /><vType id="vType_car_23.425721109763316" accel="1.0" decel="5.0" sigma="0.0" length="4.5" maxSpeed="6.507144752712032" /><vType id="vType_car_39.63851475506658" accel="1.0" decel="5.0" sigma="0.0" length="4.5" maxSpeed="11.01069854307405" /><vType id="vType_car_5.484077879917631" accel="1.0" decel="5.0" sigma="0.0" length="4.5" maxSpeed="1.5233549666437864" /><vType id="vType_car_17.329074164289313" accel="1.0" decel="5.0" sigma="0.0" length="4.5" maxSpeed="4.813631712302587" /><vType id="vType_car_17.005296846253646" accel="1.0" decel="5.0" sigma="0.0" length="4.5" maxSpeed="4.723693568403791" /><vType id="vType_car_4.192717581374302" accel="1.0" decel="5.0" sigma="0.0" length="4.5" maxSpeed="1.1646437726039727" /><vType id="vType_car_18.615334887965076" accel="1.0" decel="5.0" sigma="0.0" length="4.5" maxSpeed="5.170926357768077" /><vType id="vType_car_27.8922621163094" accel="1.0" decel="5.0" sigma="0.0" length="4.5" maxSpeed="7.747850587863722" /><vType id="vType_car_18.064911886735356" accel="1.0" decel="5.0" sigma="0.0" length="4.5" maxSpeed="5.0180310796487095" /><vType id="vType_car_4.264827904223456" accel="1.0" decel="5.0" sigma="0.0" length="4.5" maxSpeed="1.1846744178398487" /><vType id="vType_car_31.252086199170055" accel="1.0" decel="5.0" sigma="0.0" length="4.5" maxSpeed="8.681135055325015" /><vType id="vType_car_3.7776390864048897" accel="1.0" decel="5.0" sigma="0.0" length="4.5" maxSpeed="1.049344190668025" /><vType id="vType_car_17.973894025592685" accel="1.0" decel="5.0" sigma="0.0" length="4.5" maxSpeed="4.992748340442413" /><vType id="vType_car_20.878995325138963" accel="1.0" decel="5.0" sigma="0.0" length="4.5" maxSpeed="5.799720923649712" /><vType id="vType_car_28.898050617452597" accel="1.0" decel="5.0" sigma="0.0" length="4.5" maxSpeed="8.02723628262572" /><vType id="vType_car_32.449897170124956" accel="1.0" decel="5.0" sigma="0.0" length="4.5" maxSpeed="9.01386032503471" /><vType id="vType_car_5.702661224110719" accel="1.0" decel="5.0" sigma="0.0" length="4.5" maxSpeed="1.5840725622529774" /><vType id="vType_car_25.2368128743286" accel="1.0" decel="5.0" sigma="0.0" length="4.5" maxSpeed="7.010225798424611" /><vType id="vType_car_3.7776390864048905" accel="1.0" decel="5.0" sigma="0.0" length="4.5" maxSpeed="1.0493441906680252" /><vType id="vType_car_53.42388429744505" accel="1.0" decel="5.0" sigma="0.0" length="4.5" maxSpeed="14.839967860401401" /><vType id="vType_car_17.753232490211126" accel="1.0" decel="5.0" sigma="0.0" length="4.5" maxSpeed="4.93145346950309" /><vType id="vType_car_23.358271641695985" accel="1.0" decel="5.0" sigma="0.0" length="4.5" maxSpeed="6.488408789359996" /><vType id="vType_car_5.533677236881242" accel="1.0" decel="5.0" sigma="0.0" length="4.5" maxSpeed="1.537132565800345" /><vType id="vType_car_22.446352282733944" accel="1.0" decel="5.0" sigma="0.0" length="4.5" maxSpeed="6.235097856314984" /><vType id="vType_car_5.187465819874255" accel="1.0" decel="5.0" sigma="0.0" length="4.5" maxSpeed="1.4409627277428487" /><vType id="vType_car_23.666998604475182" accel="1.0" decel="5.0" sigma="0.0" length="4.5" maxSpeed="6.574166279020884" /><vType id="vType_car_3.2328323883492254" accel="1.0" decel="5.0" sigma="0.0" length="4.5" maxSpeed="0.8980089967636737" /><vType id="vType_car_5.871950938273157" accel="1.0" decel="5.0" sigma="0.0" length="4.5" maxSpeed="1.6310974828536546" /><vType id="vType_car_20.526713395445533" accel="1.0" decel="5.0" sigma="0.0" length="4.5" maxSpeed="5.701864832068203" /><vType id="vType_car_26.818703627037905" accel="1.0" decel="5.0" sigma="0.0" length="4.5" maxSpeed="7.449639896399418" /><vType id="vType_car_19.866174889563464" accel="1.0" decel="5.0" sigma="0.0" length="4.5" maxSpeed="5.518381913767628" /><vType id="vType_car_18.615722953511995" accel="1.0" decel="5.0" sigma="0.0" length="4.5" maxSpeed="5.1710341537533315" /><vType id="vType_car_20.32386055045235" accel="1.0" decel="5.0" sigma="0.0" length="4.5" maxSpeed="5.645516819570097" /><vType id="vType_car_3.976315620751706" accel="1.0" decel="5.0" sigma="0.0" length="4.5" maxSpeed="1.1045321168754738" /><vType id="vType_car_4.838215724046911" accel="1.0" decel="5.0" sigma="0.0" length="4.5" maxSpeed="1.3439488122352532" /><vType id="vType_car_23.60725452686682" accel="1.0" decel="5.0" sigma="0.0" length="4.5" maxSpeed="6.5575707019074505" /><vType id="vType_car_20.507713492642154" accel="1.0" decel="5.0" sigma="0.0" length="4.5" maxSpeed="5.696587081289487" /><vType id="vType_car_27.207864358969015" accel="1.0" decel="5.0" sigma="0.0" length="4.5" maxSpeed="7.557740099713615" /><vType id="vType_car_3.9667013948220555" accel="1.0" decel="5.0" sigma="0.0" length="4.5" maxSpeed="1.1018614985616821" /><vType id="vType_car_4.471400795712544" accel="1.0" decel="5.0" sigma="0.0" length="4.5" maxSpeed="1.2420557765868177" /><vType id="vType_car_16.840823373634894" accel="1.0" decel="5.0" sigma="0.0" length="4.5" maxSpeed="4.678006492676359" /><vType id="vType_car_4.038430643628159" accel="1.0" decel="5.0" sigma="0.0" length="4.5" maxSpeed="1.1217862898967108" /><vType id="vType_car_18.30209337139898" accel="1.0" decel="5.0" sigma="0.0" length="4.5" maxSpeed="5.083914825388605" /><vType id="vType_car_23.910287759357427" accel="1.0" decel="5.0" sigma="0.0" length="4.5" maxSpeed="6.6417465998215075" /><vType id="vType_car_3.7287110624816875" accel="1.0" decel="5.0" sigma="0.0" length="4.5" maxSpeed="1.0357530729115798" /><vType id="vType_truck_27.241764447398804" accel="1.0" decel="5.0" sigma="0.0" length="8" maxSpeed="7.567156790944112" /><vType id="vType_car_18.353785232020268" accel="1.0" decel="5.0" sigma="0.0" length="4.5" maxSpeed="5.0982736755611855" /><vType id="vType_car_17.917870471171714" accel="1.0" decel="5.0" sigma="0.0" length="4.5" maxSpeed="4.977186241992142" /><vType id="vType_car_22.051429463186466" accel="1.0" decel="5.0" sigma="0.0" length="4.5" maxSpeed="6.125397073107352" /><vType id="vType_car_15.465114688556643" accel="1.0" decel="5.0" sigma="0.0" length="4.5" maxSpeed="4.295865191265734" /><vType id="vType_truck_19.81638316806765" accel="1.0" decel="5.0" sigma="0.0" length="8" maxSpeed="5.504550880018791" /><vType id="vType_car_1.496455834556592" accel="1.0" decel="5.0" sigma="0.0" length="4.5" maxSpeed="0.41568217626571996" /><vType id="vType_car_16.053802938611604" accel="1.0" decel="5.0" sigma="0.0" length="4.5" maxSpeed="4.459389705169889" /><vType id="vType_car_28.65523822712717" accel="1.0" decel="5.0" sigma="0.0" length="4.5" maxSpeed="7.959788396424214" /><vType id="vType_car_5.9240582379874045" accel="1.0" decel="5.0" sigma="0.0" length="4.5" maxSpeed="1.645571732774279" /><vType id="vType_car_5.76449387488165" accel="1.0" decel="5.0" sigma="0.0" length="4.5" maxSpeed="1.601248298578236" /><vType id="vType_car_5.407666644104869" accel="1.0" decel="5.0" sigma="0.0" length="4.5" maxSpeed="1.5021296233624635" /><vType id="vType_car_21.45221070803502" accel="1.0" decel="5.0" sigma="0.0" length="4.5" maxSpeed="5.958947418898617" /><vType id="vType_car_41.598743300508765" accel="1.0" decel="5.0" sigma="0.0" length="4.5" maxSpeed="11.555206472363546" /><vType id="vType_car_34.980391327422794" accel="1.0" decel="5.0" sigma="0.0" length="4.5" maxSpeed="9.716775368728554" /><vType id="vType_car_84.47057791661537" accel="1.0" decel="5.0" sigma="0.0" length="4.5" maxSpeed="23.464049421282045" /><vType id="vType_car_29.164661574255096" accel="1.0" decel="5.0" sigma="0.0" length="4.5" maxSpeed="8.101294881737527" /><vType id="vType_car_38.265927752463924" accel="1.0" decel="5.0" sigma="0.0" length="4.5" maxSpeed="10.629424375684422" /><vType id="vType_car_32.36890498345181" accel="1.0" decel="5.0" sigma="0.0" length="4.5" maxSpeed="8.991362495403282" /><vType id="vType_car_55.05753940301949" accel="1.0" decel="5.0" sigma="0.0" length="4.5" maxSpeed="15.293760945283191" /><route id="route_north_to_east" edges="north_to_center center_to_east" /><route id="route_north_to_south" edges="north_to_center center_to_south" /><route id="route_north_to_west" edges="north_to_center center_to_west" /><route id="route_east_to_west" edges="east_to_center center_to_west" /><route id="route_east_to_south" edges="east_to_center center_to_south" /><route id="route_east_to_north" edges="east_to_center center_to_north" /><route id="route_south_to_west" edges="south_to_center center_to_west" /><route id="route_south_to_north" edges="south_to_center center_to_north" /><route id="route_south_to_east" edges="south_to_center center_to_east" /><route id="route_west_to_south" edges="west_to_center center_to_south" /><route id="route_west_to_north" edges="west_to_center center_to_north" /><route id="route_west_to_east" edges="west_to_center center_to_east" /><vehicle id="veh646" type="vType_car_25.800779548346764" route="route_west_to_north" depart="0.03" /><vehicle id="veh657" type="vType_car_25.08564709756658" route="route_north_to_south" depart="3.77" /><vehicle id="veh662" type="vType_car_20.59246495290646" route="route_south_to_north" depart="6.07" /><vehicle id="veh663" type="vType_car_21.74590980199508" route="route_north_to_south" depart="6.44" /><vehicle id="veh664" type="vType_car_8.156157478707321" route="route_north_to_east" depart="7.57" /><vehicle id="veh666" type="vType_car_14.374403579422022" route="route_south_to_north" depart="7.77" /><vehicle id="veh672" type="vType_car_23.425721109763316" route="route_north_to_south" depart="8.81" /><vehicle id="veh676" type="vType_car_5.484077879917631" route="route_east_to_north" depart="9.61" /><vehicle id="veh677" type="vType_car_17.329074164289313" route="route_south_to_north" depart="10.07" /><vehicle id="veh680" type="vType_car_17.005296846253646" route="route_south_to_north" depart="11.81" /><vehicle id="veh682" type="vType_car_18.615334887965076" route="route_south_to_north" depart="12.67" /><vehicle id="veh683" type="vType_car_27.8922621163094" route="route_north_to_south" depart="13.17" /><vehicle id="veh684" type="vType_car_18.064911886735356" route="route_south_to_north" depart="14.11" /><vehicle id="veh687" type="vType_car_31.252086199170055" route="route_north_to_south" depart="15.71" /><vehicle id="veh689" type="vType_car_17.973894025592685" route="route_south_to_north" depart="16.14" /><vehicle id="veh692" type="vType_car_20.878995325138963" route="route_south_to_north" depart="17.98" /><vehicle id="veh694" type="vType_car_28.898050617452597" route="route_north_to_south" depart="18.11" /><vehicle id="veh695" type="vType_car_32.449897170124956" route="route_south_to_north" depart="18.44" /><vehicle id="veh696" type="vType_car_5.702661224110719" route="route_east_to_north" depart="18.98" /><vehicle id="veh697" type="vType_car_25.2368128743286" route="route_south_to_north" depart="19.85" /><vehicle id="veh700" type="vType_car_17.753232490211126" route="route_south_to_north" depart="20.85" /><vehicle id="veh703" type="vType_car_23.358271641695985" route="route_north_to_west" depart="21.21" /><vehicle id="veh705" type="vType_car_22.446352282733944" route="route_north_to_west" depart="21.78" /><vehicle id="veh707" type="vType_car_23.666998604475182" route="route_south_to_north" depart="22.65" /><vehicle id="veh710" type="vType_car_20.526713395445533" route="route_south_to_north" depart="23.18" /><vehicle id="veh711" type="vType_car_26.818703627037905" route="route_south_to_north" depart="24.42" /><vehicle id="veh712" type="vType_car_19.866174889563464" route="route_south_to_north" depart="24.92" /><vehicle id="veh713" type="vType_car_18.615722953511995" route="route_north_to_west" depart="25.42" /><vehicle id="veh718" type="vType_car_23.60725452686682" route="route_north_to_south" depart="28.12" /><vehicle id="veh719" type="vType_car_20.507713492642154" route="route_south_to_north" depart="28.32" /><vehicle id="veh720" type="vType_car_27.207864358969015" route="route_south_to_north" depart="30.42" /><vehicle id="veh727" type="vType_car_18.30209337139898" route="route_north_to_west" depart="33.35" /><vehicle id="veh728" type="vType_car_23.910287759357427" route="route_north_to_south" depart="34.15" /><vehicle id="veh731" type="vType_car_18.353785232020268" route="route_north_to_west" depart="39.26" /><vehicle id="veh732" type="vType_car_17.917870471171714" route="route_south_to_east" depart="40.76" /><vehicle id="veh735" type="vType_car_15.465114688556643" route="route_north_to_east" depart="42.56" /><vehicle id="veh738" type="vType_truck_19.81638316806765" route="route_north_to_south" depart="44.43" /><vehicle id="veh740" type="vType_car_16.053802938611604" route="route_north_to_east" depart="45.40" /><vehicle id="veh746" type="vType_car_28.65523822712717" route="route_north_to_south" depart="48.33" /><vehicle id="veh754" type="vType_car_21.45221070803502" route="route_south_to_north" depart="51.60" /><vehicle id="veh757" type="vType_car_41.598743300508765" route="route_south_to_north" depart="53.37" /><vehicle id="veh759" type="vType_car_34.980391327422794" route="route_south_to_west" depart="54.83" /><vehicle id="veh761" type="vType_car_29.164661574255096" route="route_south_to_north" depart="55.30" /><vehicle id="veh763" type="vType_car_38.265927752463924" route="route_south_to_west" depart="56.64" /></routes>