<?xml version='1.0' encoding='utf-8'?>
<routes><vType id="vType_car_16.978814219141096" accel="1.0" decel="5.0" sigma="0.0" length="4.5" maxSpeed="4.716337283094749" /><vType id="vType_car_3.8623519410520726" accel="1.0" decel="5.0" sigma="0.0" length="4.5" maxSpeed="1.0728755391811313" /><vType id="vType_car_67.9347180950674" accel="1.0" decel="5.0" sigma="0.0" length="4.5" maxSpeed="18.87075502640761" /><vType id="vType_car_4.720235351210658" accel="1.0" decel="5.0" sigma="0.0" length="4.5" maxSpeed="1.311176486447405" /><vType id="vType_car_12.060485327577808" accel="1.0" decel="5.0" sigma="0.0" length="4.5" maxSpeed="3.3501348132160578" /><vType id="vType_car_18.39892898204484" accel="1.0" decel="5.0" sigma="0.0" length="4.5" maxSpeed="5.110813606123567" /><vType id="vType_car_3.77763908640489" accel="1.0" decel="5.0" sigma="0.0" length="4.5" maxSpeed="1.049344190668025" /><vType id="vType_car_3.562034317866539" accel="1.0" decel="5.0" sigma="0.0" length="4.5" maxSpeed="0.9894539771851497" /><vType id="vType_car_4.465780572749345" accel="1.0" decel="5.0" sigma="0.0" length="4.5" maxSpeed="1.2404946035414848" /><vType id="vType_car_28.72280828893289" accel="1.0" decel="5.0" sigma="0.0" length="4.5" maxSpeed="7.978557858036913" /><vType id="vType_car_5.7324495271349" accel="1.0" decel="5.0" sigma="0.0" length="4.5" maxSpeed="1.5923470908708055" /><vType id="vType_car_6.335293343746153" accel="1.0" decel="5.0" sigma="0.0" length="4.5" maxSpeed="1.7598037065961536" /><vType id="vType_car_6.176290560916464" accel="1.0" decel="5.0" sigma="0.0" length="4.5" maxSpeed="1.71563626692124" /><vType id="vType_car_21.249558719765336" accel="1.0" decel="5.0" sigma="0.0" length="4.5" maxSpeed="5.902655199934816" /><vType id="vType_car_38.03134632221847" accel="1.0" decel="5.0" sigma="0.0" length="4.5" maxSpeed="10.564262867282908" /><vType id="vType_car_29.76100391024335" accel="1.0" decel="5.0" sigma="0.0" length="4.5" maxSpeed="8.266945530623152" /><vType id="vType_car_30.797051108985" accel="1.0" decel="5.0" sigma="0.0" length="4.5" maxSpeed="8.554736419162499" /><vType id="vType_car_16.611638776289592" accel="1.0" decel="5.0" sigma="0.0" length="4.5" maxSpeed="4.6143441045248865" /><vType id="vType_car_6.99031097675824" accel="1.0" decel="5.0" sigma="0.0" length="4.5" maxSpeed="1.941753049099511" /><vType id="vType_car_19.888481174425284" accel="1.0" decel="5.0" sigma="0.0" length="4.5" maxSpeed="5.524578104007023" /><vType id="vType_car_27.089870528746097" accel="1.0" decel="5.0" sigma="0.0" length="4.5" maxSpeed="7.524964035762805" /><vType id="vType_car_36.36624383702828" accel="1.0" decel="5.0" sigma="0.0" length="4.5" maxSpeed="10.101734399174521" /><vType id="vType_car_17.993468420125705" accel="1.0" decel="5.0" sigma="0.0" length="4.5" maxSpeed="4.99818567225714" /><vType id="vType_car_16.305150975375636" accel="1.0" decel="5.0" sigma="0.0" length="4.5" maxSpeed="4.52920860427101" /><vType id="vType_car_18.63187537217089" accel="1.0" decel="5.0" sigma="0.0" length="4.5" maxSpeed="5.175520936714135" /><vType id="vType_car_18.536095087036532" accel="1.0" decel="5.0" sigma="0.0" length="4.5" maxSpeed="5.148915301954593" /><vType id="vType_bus_22.315796082615687" accel="1.0" decel="5.0" sigma="0.0" length="13" maxSpeed="6.198832245171024" /><vType id="vType_car_4.299222200851428" accel="1.0" decel="5.0" sigma="0.0" length="4.5" maxSpeed="1.1942283891253966" /><vType id="vType_car_16.252361486365455" accel="1.0" decel="5.0" sigma="0.0" length="4.5" maxSpeed="4.514544857323737" /><vType id="vType_car_25.68133067439771" accel="1.0" decel="5.0" sigma="0.0" length="4.5" maxSpeed="7.133702965110475" /><vType id="vType_car_6.969643055025922" accel="1.0" decel="5.0" sigma="0.0" length="4.5" maxSpeed="1.9360119597294227" /><vType id="vType_car_3.1836134190726755" accel="1.0" decel="5.0" sigma="0.0" length="4.5" maxSpeed="0.8843370608535209" /><vType id="vType_car_17.268077459741228" accel="1.0" decel="5.0" sigma="0.0" length="4.5" maxSpeed="4.796688183261452" /><vType id="vType_car_3.6648646460834793" accel="1.0" decel="5.0" sigma="0.0" length="4.5" maxSpeed="1.0180179572454109" /><vType id="vType_car_15.46375257055795" accel="1.0" decel="5.0" sigma="0.0" length="4.5" maxSpeed="4.2954868251549865" /><vType id="vType_truck_22.3412446007918" accel="1.0" decel="5.0" sigma="0.0" length="8" maxSpeed="6.205901277997722" /><vType id="vType_car_19.02424391169934" accel="1.0" decel="5.0" sigma="0.0" length="4.5" maxSpeed="5.284512197694261" /><vType id="vType_car_25.593975017233646" accel="1.0" decel="5.0" sigma="0.0" length="4.5" maxSpeed="7.109437504787124" /><vType id="vType_car_2.143130842698294" accel="1.0" decel="5.0" sigma="0.0" length="4.5" maxSpeed="0.5953141229717483" /><vType id="vType_car_18.575633113373783" accel="1.0" decel="5.0" sigma="0.0" length="4.5" maxSpeed="5.159898087048273" /><vType id="vType_car_27.197413482006624" accel="1.0" decel="5.0" sigma="0.0" length="4.5" maxSpeed="7.554837078335173" /><vType id="vType_car_18.2852916015688" accel="1.0" decel="5.0" sigma="0.0" length="4.5" maxSpeed="5.079247667102445" /><vType id="vType_car_19.508976971527133" accel="1.0" decel="5.0" sigma="0.0" length="4.5" maxSpeed="5.419160269868648" /><vType id="vType_car_3.637726527649153" accel="1.0" decel="5.0" sigma="0.0" length="4.5" maxSpeed="1.0104795910136537" /><vType id="vType_car_22.18196182165855" accel="1.0" decel="5.0" sigma="0.0" length="4.5" maxSpeed="6.161656061571819" /><vType id="vType_car_3.128959037718802" accel="1.0" decel="5.0" sigma="0.0" length="4.5" maxSpeed="0.8691552882552227" /><vType id="vType_car_17.883475638949157" accel="1.0" decel="5.0" sigma="0.0" length="4.5" maxSpeed="4.967632121930321" /><vType id="vType_car_6.1916638426880395" accel="1.0" decel="5.0" sigma="0.0" length="4.5" maxSpeed="1.7199066229688997" /><vType id="vType_car_3.6756901833863833" accel="1.0" decel="5.0" sigma="0.0" length="4.5" maxSpeed="1.021025050940662" /><vType id="vType_car_3.8179190561701124" accel="1.0" decel="5.0" sigma="0.0" length="4.5" maxSpeed="1.0605330711583645" /><vType id="vType_car_28.73463312948289" accel="1.0" decel="5.0" sigma="0.0" length="4.5" maxSpeed="7.98184253596747" /><vType id="vType_car_37.14379624080713" accel="1.0" decel="5.0" sigma="0.0" length="4.5" maxSpeed="10.31772117800198" /><vType id="vType_car_10.38841805653463" accel="1.0" decel="5.0" sigma="0.0" length="4.5" maxSpeed="2.8856716823707305" /><vType id="vType_car_6.434462762904264" accel="1.0" decel="5.0" sigma="0.0" length="4.5" maxSpeed="1.7873507674734066" /><vType id="vType_car_36.641969619623225" accel="1.0" decel="5.0" sigma="0.0" length="4.5" maxSpeed="10.178324894339784" /><vType id="vType_car_17.91682920299235" accel="1.0" decel="5.0" sigma="0.0" length="4.5" maxSpeed="4.976897000831208" /><vType id="vType_car_10.837960337675359" accel="1.0" decel="5.0" sigma="0.0" length="4.5" maxSpeed="3.0105445382431553" /><vType id="vType_car_4.222326047694476" accel="1.0" decel="5.0" sigma="0.0" length="4.5" maxSpeed="1.1728683465817988" /><vType id="vType_car_33.08760168501045" accel="1.0" decel="5.0" sigma="0.0" length="4.5" maxSpeed="9.191000468058457" /><vType id="vType_car_4.332598208571492" accel="1.0" decel="5.0" sigma="0.0" length="4.5" maxSpeed="1.2034995023809698" /><vType id="vType_car_35.44981169331932" accel="1.0" decel="5.0" sigma="0.0" length="4.5" maxSpeed="9.847169914810921" /><vType id="vType_car_18.719904448235535" accel="1.0" decel="5.0" sigma="0.0" length="4.5" maxSpeed="5.199973457843204" /><vType id="vType_car_4.767838559325959" accel="1.0" decel="5.0" sigma="0.0" length="4.5" maxSpeed="1.3243995998127664" /><vType id="vType_car_12.513236361349335" accel="1.0" decel="5.0" sigma="0.0" length="4.5" maxSpeed="3.475898989263704" /><vType id="vType_car_4.090588955072812" accel="1.0" decel="5.0" sigma="0.0" length="4.5" maxSpeed="1.136274709742448" /><vType id="vType_car_4.723087295897823" accel="1.0" decel="5.0" sigma="0.0" length="4.5" maxSpeed="1.3119686933049508" /><vType id="vType_car_1.618118567754406" accel="1.0" decel="5.0" sigma="0.0" length="4.5" maxSpeed="0.44947737993177944" /><vType id="vType_car_10.466011018905045" accel="1.0" decel="5.0" sigma="0.0" length="4.5" maxSpeed="2.907225283029179" /><vType id="vType_car_4.151457623660436" accel="1.0" decel="5.0" sigma="0.0" length="4.5" maxSpeed="1.15318267323901" /><vType id="vType_car_2.813474632050994" accel="1.0" decel="5.0" sigma="0.0" length="4.5" maxSpeed="0.7815207311252761" /><vType id="vType_car_5.472016509689636" accel="1.0" decel="5.0" sigma="0.0" length="4.5" maxSpeed="1.520004586024899" /><vType id="vType_car_3.2964322506080888" accel="1.0" decel="5.0" sigma="0.0" length="4.5" maxSpeed="0.9156756251689135" /><vType id="vType_car_5.342388429744504" accel="1.0" decel="5.0" sigma="0.0" length="4.5" maxSpeed="1.48399678604014" /><vType id="vType_car_25.68293148200747" accel="1.0" decel="5.0" sigma="0.0" length="4.5" maxSpeed="7.134147633890963" /><vType id="vType_car_3.609915953247436" accel="1.0" decel="5.0" sigma="0.0" length="4.5" maxSpeed="1.002754431457621" /><vType id="vType_car_5.024472696124143" accel="1.0" decel="5.0" sigma="0.0" length="4.5" maxSpeed="1.395686860034484" /><vType id="vType_car_3.8214198443495464" accel="1.0" decel="5.0" sigma="0.0" length="4.5" maxSpeed="1.0615055123193184" /><vType id="vType_car_3.496522787498697" accel="1.0" decel="5.0" sigma="0.0" length="4.5" maxSpeed="0.9712563298607492" /><vType id="vType_car_25.08564709756658" accel="1.0" decel="5.0" sigma="0.0" length="4.5" maxSpeed="6.968235304879605" /><vType id="vType_car_20.59246495290646" accel="1.0" decel="5.0" sigma="0.0" length="4.5" maxSpeed="5.720129153585128" /><vType id="vType_car_21.74590980199508" accel="1.0" decel="5.0" sigma="0.0" length="4.5" maxSpeed="6.040530500554189" /><vType id="vType_car_8.156157478707321" accel="1.0" decel="5.0" sigma="0.0" length="4.5" maxSpeed="2.2655992996409227" /><vType id="vType_car_14.374403579422022" accel="1.0" decel="5.0" sigma="0.0" length="4.5" maxSpeed="3.9928898831727837" /><vType id="vType_car_23.425721109763316" accel="1.0" decel="5.0" sigma="0.0" length="4.5" maxSpeed="6.507144752712032" /><vType id="vType_car_39.63851475506658" accel="1.0" decel="5.0" sigma="0.0" length="4.5" maxSpeed="11.01069854307405" /><vType id="vType_car_5.484077879917631" accel="1.0" decel="5.0" sigma="0.0" length="4.5" maxSpeed="1.5233549666437864" /><vType id="vType_car_17.329074164289313" accel="1.0" decel="5.0" sigma="0.0" length="4.5" maxSpeed="4.813631712302587" /><vType id="vType_car_17.005296846253646" accel="1.0" decel="5.0" sigma="0.0" length="4.5" maxSpeed="4.723693568403791" /><vType id="vType_car_4.192717581374302" accel="1.0" decel="5.0" sigma="0.0" length="4.5" maxSpeed="1.1646437726039727" /><vType id="vType_car_18.615334887965076" accel="1.0" decel="5.0" sigma="0.0" length="4.5" maxSpeed="5.170926357768077" /><vType id="vType_car_27.8922621163094" accel="1.0" decel="5.0" sigma="0.0" length="4.5" maxSpeed="7.747850587863722" /><vType id="vType_car_18.064911886735356" accel="1.0" decel="5.0" sigma="0.0" length="4.5" maxSpeed="5.0180310796487095" /><vType id="vType_car_4.264827904223456" accel="1.0" decel="5.0" sigma="0.0" length="4.5" maxSpeed="1.1846744178398487" /><vType id="vType_car_31.252086199170055" accel="1.0" decel="5.0" sigma="0.0" length="4.5" maxSpeed="8.681135055325015" /><vType id="vType_car_3.7776390864048897" accel="1.0" decel="5.0" sigma="0.0" length="4.5" maxSpeed="1.049344190668025" /><vType id="vType_car_17.973894025592685" accel="1.0" decel="5.0" sigma="0.0" length="4.5" maxSpeed="4.992748340442413" /><vType id="vType_car_20.878995325138963" accel="1.0" decel="5.0" sigma="0.0" length="4.5" maxSpeed="5.799720923649712" /><vType id="vType_car_28.898050617452597" accel="1.0" decel="5.0" sigma="0.0" length="4.5" maxSpeed="8.02723628262572" /><vType id="vType_car_32.449897170124956" accel="1.0" decel="5.0" sigma="0.0" length="4.5" maxSpeed="9.01386032503471" /><vType id="vType_car_5.702661224110719" accel="1.0" decel="5.0" sigma="0.0" length="4.5" maxSpeed="1.5840725622529774" /><vType id="vType_car_25.2368128743286" accel="1.0" decel="5.0" sigma="0.0" length="4.5" maxSpeed="7.010225798424611" /><vType id="vType_car_3.7776390864048905" accel="1.0" decel="5.0" sigma="0.0" length="4.5" maxSpeed="1.0493441906680252" /><vType id="vType_car_53.42388429744505" accel="1.0" decel="5.0" sigma="0.0" length="4.5" maxSpeed="14.839967860401401" /><vType id="vType_car_17.753232490211126" accel="1.0" decel="5.0" sigma="0.0" length="4.5" maxSpeed="4.93145346950309" /><vType id="vType_car_23.358271641695985" accel="1.0" decel="5.0" sigma="0.0" length="4.5" maxSpeed="6.488408789359996" /><vType id="vType_car_5.533677236881242" accel="1.0" decel="5.0" sigma="0.0" length="4.5" maxSpeed="1.537132565800345" /><vType id="vType_car_22.446352282733944" accel="1.0" decel="5.0" sigma="0.0" length="4.5" maxSpeed="6.235097856314984" /><vType id="vType_car_5.187465819874255" accel="1.0" decel="5.0" sigma="0.0" length="4.5" maxSpeed="1.4409627277428487" /><vType id="vType_car_23.666998604475182" accel="1.0" decel="5.0" sigma="0.0" length="4.5" maxSpeed="6.574166279020884" /><vType id="vType_car_3.2328323883492254" accel="1.0" decel="5.0" sigma="0.0" length="4.5" maxSpeed="0.8980089967636737" /><vType id="vType_car_5.871950938273157" accel="1.0" decel="5.0" sigma="0.0" length="4.5" maxSpeed="1.6310974828536546" /><vType id="vType_car_20.526713395445533" accel="1.0" decel="5.0" sigma="0.0" length="4.5" maxSpeed="5.701864832068203" /><vType id="vType_car_26.818703627037905" accel="1.0" decel="5.0" sigma="0.0" length="4.5" maxSpeed="7.449639896399418" /><vType id="vType_car_19.866174889563464" accel="1.0" decel="5.0" sigma="0.0" length="4.5" maxSpeed="5.518381913767628" /><vType id="vType_car_18.615722953511995" accel="1.0" decel="5.0" sigma="0.0" length="4.5" maxSpeed="5.1710341537533315" /><vType id="vType_car_20.32386055045235" accel="1.0" decel="5.0" sigma="0.0" length="4.5" maxSpeed="5.645516819570097" /><vType id="vType_car_3.976315620751706" accel="1.0" decel="5.0" sigma="0.0" length="4.5" maxSpeed="1.1045321168754738" /><vType id="vType_car_4.838215724046911" accel="1.0" decel="5.0" sigma="0.0" length="4.5" maxSpeed="1.3439488122352532" /><vType id="vType_car_23.60725452686682" accel="1.0" decel="5.0" sigma="0.0" length="4.5" maxSpeed="6.5575707019074505" /><vType id="vType_car_20.507713492642154" accel="1.0" decel="5.0" sigma="0.0" length="4.5" maxSpeed="5.696587081289487" /><vType id="vType_car_27.207864358969015" accel="1.0" decel="5.0" sigma="0.0" length="4.5" maxSpeed="7.557740099713615" /><vType id="vType_car_3.9667013948220555" accel="1.0" decel="5.0" sigma="0.0" length="4.5" maxSpeed="1.1018614985616821" /><vType id="vType_car_4.471400795712544" accel="1.0" decel="5.0" sigma="0.0" length="4.5" maxSpeed="1.2420557765868177" /><vType id="vType_car_16.840823373634894" accel="1.0" decel="5.0" sigma="0.0" length="4.5" maxSpeed="4.678006492676359" /><vType id="vType_car_4.038430643628159" accel="1.0" decel="5.0" sigma="0.0" length="4.5" maxSpeed="1.1217862898967108" /><vType id="vType_car_18.30209337139898" accel="1.0" decel="5.0" sigma="0.0" length="4.5" maxSpeed="5.083914825388605" /><vType id="vType_car_23.910287759357427" accel="1.0" decel="5.0" sigma="0.0" length="4.5" maxSpeed="6.6417465998215075" /><vType id="vType_car_3.7287110624816875" accel="1.0" decel="5.0" sigma="0.0" length="4.5" maxSpeed="1.0357530729115798" /><vType id="vType_truck_27.241764447398804" accel="1.0" decel="5.0" sigma="0.0" length="8" maxSpeed="7.567156790944112" /><vType id="vType_car_18.353785232020268" accel="1.0" decel="5.0" sigma="0.0" length="4.5" maxSpeed="5.0982736755611855" /><vType id="vType_car_17.917870471171714" accel="1.0" decel="5.0" sigma="0.0" length="4.5" maxSpeed="4.977186241992142" /><vType id="vType_car_22.051429463186466" accel="1.0" decel="5.0" sigma="0.0" length="4.5" maxSpeed="6.125397073107352" /><vType id="vType_car_15.465114688556643" accel="1.0" decel="5.0" sigma="0.0" length="4.5" maxSpeed="4.295865191265734" /><vType id="vType_truck_19.81638316806765" accel="1.0" decel="5.0" sigma="0.0" length="8" maxSpeed="5.504550880018791" /><vType id="vType_car_1.496455834556592" accel="1.0" decel="5.0" sigma="0.0" length="4.5" maxSpeed="0.41568217626571996" /><vType id="vType_car_16.053802938611604" accel="1.0" decel="5.0" sigma="0.0" length="4.5" maxSpeed="4.459389705169889" /><vType id="vType_car_28.65523822712717" accel="1.0" decel="5.0" sigma="0.0" length="4.5" maxSpeed="7.959788396424214" /><vType id="vType_car_5.9240582379874045" accel="1.0" decel="5.0" sigma="0.0" length="4.5" maxSpeed="1.645571732774279" /><vType id="vType_car_5.76449387488165" accel="1.0" decel="5.0" sigma="0.0" length="4.5" maxSpeed="1.601248298578236" /><vType id="vType_car_5.407666644104869" accel="1.0" decel="5.0" sigma="0.0" length="4.5" maxSpeed="1.5021296233624635" /><vType id="vType_car_21.45221070803502" accel="1.0" decel="5.0" sigma="0.0" length="4.5" maxSpeed="5.958947418898617" /><vType id="vType_car_41.598743300508765" accel="1.0" decel="5.0" sigma="0.0" length="4.5" maxSpeed="11.555206472363546" /><vType id="vType_car_34.980391327422794" accel="1.0" decel="5.0" sigma="0.0" length="4.5" maxSpeed="9.716775368728554" /><vType id="vType_car_84.47057791661537" accel="1.0" decel="5.0" sigma="0.0" length="4.5" maxSpeed="23.464049421282045" /><vType id="vType_car_29.164661574255096" accel="1.0" decel="5.0" sigma="0.0" length="4.5" maxSpeed="8.101294881737527" /><vType id="vType_car_38.265927752463924" accel="1.0" decel="5.0" sigma="0.0" length="4.5" maxSpeed="10.629424375684422" /><vType id="vType_car_32.36890498345181" accel="1.0" decel="5.0" sigma="0.0" length="4.5" maxSpeed="8.991362495403282" /><vType id="vType_car_55.05753940301949" accel="1.0" decel="5.0" sigma="0.0" length="4.5" maxSpeed="15.293760945283191" /><route id="route_north_to_east" edges="north_to_center center_to_east" /><route id="route_north_to_south" edges="north_to_center center_to_south" /><route id="route_north_to_west" edges="north_to_center center_to_west" /><route id="route_east_to_west" edges="east_to_center center_to_west" /><route id="route_east_to_south" edges="east_to_center center_to_south" /><route id="route_east_to_north" edges="east_to_center center_to_north" /><route id="route_south_to_west" edges="south_to_center center_to_west" /><route id="route_south_to_north" edges="south_to_center center_to_north" /><route id="route_south_to_east" edges="south_to_center center_to_east" /><route id="route_west_to_south" edges="west_to_center center_to_south" /><route id="route_west_to_north" edges="west_to_center center_to_north" /><route id="route_west_to_east" edges="west_to_center center_to_east" /><vehicle id="veh489" type="vType_car_16.978814219141096" route="route_south_to_north" depart="0.03" /><vehicle id="veh536" type="vType_car_12.060485327577808" route="route_east_to_north" depart="0.03" /><vehicle id="veh516" type="vType_car_18.39892898204484" route="route_east_to_south" depart="0.03" /><vehicle id="veh538" type="vType_car_28.72280828893289" route="route_north_to_west" depart="0.93" /><vehicle id="veh542" type="vType_car_6.176290560916464" route="route_east_to_north" depart="2.94" /><vehicle id="veh545" type="vType_car_38.03134632221847" route="route_north_to_south" depart="3.64" /><vehicle id="veh546" type="vType_car_29.76100391024335" route="route_north_to_south" depart="3.64" /><vehicle id="veh548" type="vType_car_30.797051108985" route="route_north_to_south" depart="6.47" /><vehicle id="veh550" type="vType_car_16.611638776289592" route="route_south_to_north" depart="7.67" /><vehicle id="veh551" type="vType_car_6.99031097675824" route="route_east_to_north" depart="8.14" /><vehicle id="veh552" type="vType_car_19.888481174425284" route="route_north_to_west" depart="8.97" /><vehicle id="veh553" type="vType_car_27.089870528746097" route="route_south_to_north" depart="9.21" /><vehicle id="veh555" type="vType_car_17.993468420125705" route="route_north_to_west" depart="10.67" /><vehicle id="veh559" type="vType_car_18.63187537217089" route="route_south_to_north" depart="11.51" /><vehicle id="veh563" type="vType_bus_22.315796082615687" route="route_south_to_north" depart="13.27" /><vehicle id="veh568" type="vType_car_25.68133067439771" route="route_south_to_north" depart="15.58" /><vehicle id="veh569" type="vType_car_6.969643055025922" route="route_east_to_north" depart="15.58" /><vehicle id="veh573" type="vType_car_15.46375257055795" route="route_west_to_north" depart="17.84" /><vehicle id="veh579" type="vType_truck_22.3412446007918" route="route_south_to_north" depart="18.34" /><vehicle id="veh580" type="vType_car_19.02424391169934" route="route_south_to_north" depart="18.54" /><vehicle id="veh578" type="vType_car_25.593975017233646" route="route_west_to_east" depart="18.68" /><vehicle id="veh583" type="vType_car_27.197413482006624" route="route_south_to_north" depart="19.95" /><vehicle id="veh584" type="vType_car_18.2852916015688" route="route_south_to_north" depart="21.61" /><vehicle id="veh588" type="vType_car_19.508976971527133" route="route_south_to_north" depart="23.81" /><vehicle id="veh591" type="vType_car_22.18196182165855" route="route_south_to_north" depart="25.25" /><vehicle id="veh607" type="vType_car_28.73463312948289" route="route_east_to_west" depart="40.26" /><vehicle id="veh608" type="vType_car_37.14379624080713" route="route_east_to_west" depart="40.29" /><vehicle id="veh609" type="vType_car_10.38841805653463" route="route_east_to_north" depart="41.26" /><vehicle id="veh611" type="vType_car_36.641969619623225" route="route_east_to_west" depart="45.90" /><vehicle id="veh613" type="vType_car_17.91682920299235" route="route_east_to_north" depart="47.33" /><vehicle id="veh616" type="vType_car_10.837960337675359" route="route_east_to_north" depart="47.63" /><vehicle id="veh618" type="vType_car_33.08760168501045" route="route_east_to_west" depart="48.23" /><vehicle id="veh624" type="vType_car_35.44981169331932" route="route_east_to_west" depart="50.03" /><vehicle id="veh627" type="vType_car_18.719904448235535" route="route_north_to_west" depart="50.70" /><vehicle id="veh629" type="vType_car_12.513236361349335" route="route_east_to_north" depart="51.03" /><vehicle id="veh639" type="vType_car_10.466011018905045" route="route_east_to_north" depart="54.57" /><vehicle id="veh646" type="vType_car_25.68293148200747" route="route_west_to_north" depart="59.94" /><vehicle id="veh657" type="vType_car_25.08564709756658" route="route_north_to_south" depart="63.77" /><vehicle id="veh662" type="vType_car_20.59246495290646" route="route_south_to_north" depart="66.07" /><vehicle id="veh663" type="vType_car_21.74590980199508" route="route_north_to_south" depart="66.44" /><vehicle id="veh664" type="vType_car_8.156157478707321" route="route_north_to_east" depart="67.58" /><vehicle id="veh666" type="vType_car_14.374403579422022" route="route_south_to_north" depart="67.78" /><vehicle id="veh672" type="vType_car_23.425721109763316" route="route_north_to_south" depart="68.81" /><vehicle id="veh676" type="vType_car_5.484077879917631" route="route_east_to_north" depart="69.61" /><vehicle id="veh677" type="vType_car_17.329074164289313" route="route_south_to_north" depart="70.08" /><vehicle id="veh680" type="vType_car_17.005296846253646" route="route_south_to_north" depart="71.81" /><vehicle id="veh682" type="vType_car_18.615334887965076" route="route_south_to_north" depart="72.68" /><vehicle id="veh683" type="vType_car_27.8922621163094" route="route_north_to_south" depart="73.18" /><vehicle id="veh684" type="vType_car_18.064911886735356" route="route_south_to_north" depart="74.11" /><vehicle id="veh687" type="vType_car_31.252086199170055" route="route_north_to_south" depart="75.71" /><vehicle id="veh689" type="vType_car_17.973894025592685" route="route_south_to_north" depart="76.15" /><vehicle id="veh692" type="vType_car_20.878995325138963" route="route_south_to_north" depart="77.98" /><vehicle id="veh694" type="vType_car_28.898050617452597" route="route_north_to_south" depart="78.12" /><vehicle id="veh695" type="vType_car_32.449897170124956" route="route_south_to_north" depart="78.45" /><vehicle id="veh696" type="vType_car_5.702661224110719" route="route_east_to_north" depart="78.98" /><vehicle id="veh697" type="vType_car_25.2368128743286" route="route_south_to_north" depart="79.85" /><vehicle id="veh700" type="vType_car_17.753232490211126" route="route_south_to_north" depart="80.85" /><vehicle id="veh703" type="vType_car_23.358271641695985" route="route_north_to_west" depart="81.22" /><vehicle id="veh705" type="vType_car_22.446352282733944" route="route_north_to_west" depart="81.78" /><vehicle id="veh707" type="vType_car_23.666998604475182" route="route_south_to_north" depart="82.65" /><vehicle id="veh710" type="vType_car_20.526713395445533" route="route_south_to_north" depart="83.19" /><vehicle id="veh711" type="vType_car_26.818703627037905" route="route_south_to_north" depart="84.42" /><vehicle id="veh712" type="vType_car_19.866174889563464" route="route_south_to_north" depart="84.92" /><vehicle id="veh713" type="vType_car_18.615722953511995" route="route_north_to_west" depart="85.42" /><vehicle id="veh718" type="vType_car_23.60725452686682" route="route_north_to_south" depart="88.12" /><vehicle id="veh719" type="vType_car_20.507713492642154" route="route_south_to_north" depart="88.32" /><vehicle id="veh720" type="vType_car_27.207864358969015" route="route_south_to_north" depart="90.42" /><vehicle id="veh727" type="vType_car_18.30209337139898" route="route_north_to_west" depart="93.36" /><vehicle id="veh728" type="vType_car_23.910287759357427" route="route_north_to_south" depart="94.16" /><vehicle id="veh731" type="vType_car_18.353785232020268" route="route_north_to_west" depart="99.26" /><vehicle id="veh732" type="vType_car_17.917870471171714" route="route_south_to_east" depart="100.76" /><vehicle id="veh735" type="vType_car_15.465114688556643" route="route_north_to_east" depart="102.56" /><vehicle id="veh738" type="vType_truck_19.81638316806765" route="route_north_to_south" depart="104.43" /><vehicle id="veh740" type="vType_car_16.053802938611604" route="route_north_to_east" depart="105.40" /><vehicle id="veh746" type="vType_car_28.65523822712717" route="route_north_to_south" depart="108.33" /><vehicle id="veh754" type="vType_car_21.45221070803502" route="route_south_to_north" depart="111.60" /><vehicle id="veh757" type="vType_car_41.598743300508765" route="route_south_to_north" depart="113.37" /><vehicle id="veh759" type="vType_car_34.980391327422794" route="route_south_to_west" depart="114.84" /><vehicle id="veh761" type="vType_car_29.164661574255096" route="route_south_to_north" depart="115.31" /><vehicle id="veh763" type="vType_car_38.265927752463924" route="route_south_to_west" depart="116.64" /></routes>