<?xml version='1.0' encoding='utf-8'?>
<routes><vType id="vType_car_17.726616445330432" accel="1.0" decel="5.0" sigma="0.0" length="4.5" maxSpeed="4.924060123702898" /><vType id="vType_car_28.07847520518135" accel="1.0" decel="5.0" sigma="0.0" length="4.5" maxSpeed="7.799576445883708" /><vType id="vType_car_9.177806426332635" accel="1.0" decel="5.0" sigma="0.0" length="4.5" maxSpeed="2.5493906739812875" /><vType id="vType_car_14.569744630502441" accel="1.0" decel="5.0" sigma="0.0" length="4.5" maxSpeed="4.047151286250678" /><vType id="vType_car_15.183163511892996" accel="1.0" decel="5.0" sigma="0.0" length="4.5" maxSpeed="4.217545419970277" /><vType id="vType_car_18.567142461844554" accel="1.0" decel="5.0" sigma="0.0" length="4.5" maxSpeed="5.157539572734598" /><vType id="vType_car_17.54564247774846" accel="1.0" decel="5.0" sigma="0.0" length="4.5" maxSpeed="4.873789577152349" /><vType id="vType_car_24.073869530322465" accel="1.0" decel="5.0" sigma="0.0" length="4.5" maxSpeed="6.687185980645129" /><vType id="vType_car_4.104616840441475" accel="1.0" decel="5.0" sigma="0.0" length="4.5" maxSpeed="1.1401713445670763" /><vType id="vType_car_4.052770429384859" accel="1.0" decel="5.0" sigma="0.0" length="4.5" maxSpeed="1.1257695637180163" /><vType id="vType_car_3.973503549403931" accel="1.0" decel="5.0" sigma="0.0" length="4.5" maxSpeed="1.1037509859455363" /><vType id="vType_car_7.268589462485754" accel="1.0" decel="5.0" sigma="0.0" length="4.5" maxSpeed="2.019052628468265" /><vType id="vType_car_27.858896849477865" accel="1.0" decel="5.0" sigma="0.0" length="4.5" maxSpeed="7.738582458188295" /><vType id="vType_car_3.6309435820295324" accel="1.0" decel="5.0" sigma="0.0" length="4.5" maxSpeed="1.008595439452648" /><vType id="vType_car_4.557755419088265" accel="1.0" decel="5.0" sigma="0.0" length="4.5" maxSpeed="1.2660431719689624" /><vType id="vType_car_9.952288931884244" accel="1.0" decel="5.0" sigma="0.0" length="4.5" maxSpeed="2.764524703301179" /><vType id="vType_car_36.70315990237012" accel="1.0" decel="5.0" sigma="0.0" length="4.5" maxSpeed="10.19532219510281" /><vType id="vType_car_3.7791978460625764" accel="1.0" decel="5.0" sigma="0.0" length="4.5" maxSpeed="1.0497771794618267" /><vType id="vType_car_4.300996180306012" accel="1.0" decel="5.0" sigma="0.0" length="4.5" maxSpeed="1.1947211611961146" /><vType id="vType_car_9.590877685280994" accel="1.0" decel="5.0" sigma="0.0" length="4.5" maxSpeed="2.6641326903558316" /><vType id="vType_car_35.77696656349829" accel="1.0" decel="5.0" sigma="0.0" length="4.5" maxSpeed="9.938046267638414" /><route id="route_north_to_east" edges="north_to_center center_to_east" /><route id="route_north_to_south" edges="north_to_center center_to_south" /><route id="route_north_to_west" edges="north_to_center center_to_west" /><route id="route_east_to_west" edges="east_to_center center_to_west" /><route id="route_east_to_south" edges="east_to_center center_to_south" /><route id="route_east_to_north" edges="east_to_center center_to_north" /><route id="route_south_to_west" edges="south_to_center center_to_west" /><route id="route_south_to_north" edges="south_to_center center_to_north" /><route id="route_south_to_east" edges="south_to_center center_to_east" /><route id="route_west_to_south" edges="west_to_center center_to_south" /><route id="route_west_to_north" edges="west_to_center center_to_north" /><route id="route_west_to_east" edges="west_to_center center_to_east" /><vehicle id="veh486" type="vType_car_17.726616445330432" route="route_north_to_west" depart="1.10" /><vehicle id="veh488" type="vType_car_28.07847520518135" route="route_west_to_north" depart="1.73" /><vehicle id="veh489" type="vType_car_9.177806426332635" route="route_east_to_north" depart="11.97" /><vehicle id="veh491" type="vType_car_14.569744630502441" route="route_west_to_north" depart="12.44" /><vehicle id="veh493" type="vType_car_15.183163511892996" route="route_west_to_north" depart="14.30" /><vehicle id="veh494" type="vType_car_18.567142461844554" route="route_north_to_west" depart="15.30" /><vehicle id="veh496" type="vType_car_17.54564247774846" route="route_north_to_east" depart="16.74" /><vehicle id="veh500" type="vType_car_24.073869530322465" route="route_east_to_west" depart="32.31" /><vehicle id="veh506" type="vType_car_7.268589462485754" route="route_east_to_north" depart="35.94" /><vehicle id="veh507" type="vType_car_27.858896849477865" route="route_west_to_north" depart="36.44" /><vehicle id="veh512" type="vType_car_9.952288931884244" route="route_east_to_north" depart="45.24" /><vehicle id="veh515" type="vType_car_36.70315990237012" route="route_west_to_south" depart="45.44" /><vehicle id="veh518" type="vType_car_9.590877685280994" route="route_east_to_north" depart="48.51" /><vehicle id="veh519" type="vType_car_35.77696656349829" route="route_east_to_west" depart="49.14" /></routes>