<?xml version='1.0' encoding='utf-8'?>
<routes><vType id="vType_car_17.28149838182353" accel="1.0" decel="5.0" sigma="0.0" length="4.5" maxSpeed="4.800416217173202" /><vType id="vType_car_28.912523490231308" accel="1.0" decel="5.0" sigma="0.0" length="4.5" maxSpeed="8.031256525064252" /><vType id="vType_car_18.89124152817873" accel="1.0" decel="5.0" sigma="0.0" length="4.5" maxSpeed="5.247567091160758" /><vType id="vType_car_4.460194299741755" accel="1.0" decel="5.0" sigma="0.0" length="4.5" maxSpeed="1.2389428610393765" /><vType id="vType_car_20.41298998140609" accel="1.0" decel="5.0" sigma="0.0" length="4.5" maxSpeed="5.670274994835024" /><vType id="vType_car_3.602174812493953" accel="1.0" decel="5.0" sigma="0.0" length="4.5" maxSpeed="1.0006041145816535" /><vType id="vType_car_28.104980295557247" accel="1.0" decel="5.0" sigma="0.0" length="4.5" maxSpeed="7.806938970988124" /><vType id="vType_car_1.867323894056272" accel="1.0" decel="5.0" sigma="0.0" length="4.5" maxSpeed="0.5187010816822978" /><vType id="vType_car_14.677553095294726" accel="1.0" decel="5.0" sigma="0.0" length="4.5" maxSpeed="4.077098082026313" /><vType id="vType_car_4.196268860670798" accel="1.0" decel="5.0" sigma="0.0" length="4.5" maxSpeed="1.1656302390752216" /><vType id="vType_car_30.720618290358168" accel="1.0" decel="5.0" sigma="0.0" length="4.5" maxSpeed="8.533505080655047" /><vType id="vType_car_11.496399062156929" accel="1.0" decel="5.0" sigma="0.0" length="4.5" maxSpeed="3.1934441839324803" /><vType id="vType_car_26.790051825114507" accel="1.0" decel="5.0" sigma="0.0" length="4.5" maxSpeed="7.441681062531807" /><vType id="vType_car_4.56189534742773" accel="1.0" decel="5.0" sigma="0.0" length="4.5" maxSpeed="1.2671931520632582" /><vType id="vType_car_17.243376795727805" accel="1.0" decel="5.0" sigma="0.0" length="4.5" maxSpeed="4.789826887702168" /><vType id="vType_car_39.16073767430462" accel="1.0" decel="5.0" sigma="0.0" length="4.5" maxSpeed="10.877982687306838" /><vType id="vType_car_13.903081465351915" accel="1.0" decel="5.0" sigma="0.0" length="4.5" maxSpeed="3.861967073708865" /><vType id="vType_car_20.66568770669587" accel="1.0" decel="5.0" sigma="0.0" length="4.5" maxSpeed="5.740468807415519" /><vType id="vType_car_26.318007085252322" accel="1.0" decel="5.0" sigma="0.0" length="4.5" maxSpeed="7.310557523681201" /><vType id="vType_car_26.416616773092937" accel="1.0" decel="5.0" sigma="0.0" length="4.5" maxSpeed="7.337949103636927" /><vType id="vType_car_24.439797841378773" accel="1.0" decel="5.0" sigma="0.0" length="4.5" maxSpeed="6.788832733716326" /><vType id="vType_car_22.686764215282043" accel="1.0" decel="5.0" sigma="0.0" length="4.5" maxSpeed="6.301878948689456" /><vType id="vType_car_4.844442409049991" accel="1.0" decel="5.0" sigma="0.0" length="4.5" maxSpeed="1.345678446958331" /><vType id="vType_car_3.8098594551415212" accel="1.0" decel="5.0" sigma="0.0" length="4.5" maxSpeed="1.058294293094867" /><vType id="vType_car_25.1981698880233" accel="1.0" decel="5.0" sigma="0.0" length="4.5" maxSpeed="6.999491635562028" /><vType id="vType_car_19.096154458635873" accel="1.0" decel="5.0" sigma="0.0" length="4.5" maxSpeed="5.304487349621076" /><vType id="vType_car_27.58467952186655" accel="1.0" decel="5.0" sigma="0.0" length="4.5" maxSpeed="7.662410978296264" /><vType id="vType_car_19.395582932644476" accel="1.0" decel="5.0" sigma="0.0" length="4.5" maxSpeed="5.387661925734577" /><vType id="vType_car_29.9846630204902" accel="1.0" decel="5.0" sigma="0.0" length="4.5" maxSpeed="8.329073061247277" /><vType id="vType_car_17.048765382160198" accel="1.0" decel="5.0" sigma="0.0" length="4.5" maxSpeed="4.735768161711166" /><vType id="vType_car_22.321754684570237" accel="1.0" decel="5.0" sigma="0.0" length="4.5" maxSpeed="6.200487412380621" /><vType id="vType_car_14.64818251728922" accel="1.0" decel="5.0" sigma="0.0" length="4.5" maxSpeed="4.068939588135894" /><vType id="vType_car_23.880084554325993" accel="1.0" decel="5.0" sigma="0.0" length="4.5" maxSpeed="6.633356820646109" /><vType id="vType_car_3.4553655169304087" accel="1.0" decel="5.0" sigma="0.0" length="4.5" maxSpeed="0.9598237547028913" /><vType id="vType_car_27.29196289433676" accel="1.0" decel="5.0" sigma="0.0" length="4.5" maxSpeed="7.581100803982433" /><vType id="vType_car_40.385066249959834" accel="1.0" decel="5.0" sigma="0.0" length="4.5" maxSpeed="11.218073958322176" /><vType id="vType_car_26.848095499082874" accel="1.0" decel="5.0" sigma="0.0" length="4.5" maxSpeed="7.457804305300798" /><vType id="vType_car_16.333033060281803" accel="1.0" decel="5.0" sigma="0.0" length="4.5" maxSpeed="4.5369536278560565" /><vType id="vType_car_5.204971363924822" accel="1.0" decel="5.0" sigma="0.0" length="4.5" maxSpeed="1.4458253788680062" /><vType id="vType_car_25.44536174452423" accel="1.0" decel="5.0" sigma="0.0" length="4.5" maxSpeed="7.068156040145619" /><vType id="vType_car_3.787825767867538" accel="1.0" decel="5.0" sigma="0.0" length="4.5" maxSpeed="1.0521738244076495" /><vType id="vType_car_18.67884499737089" accel="1.0" decel="5.0" sigma="0.0" length="4.5" maxSpeed="5.1885680548252475" /><vType id="vType_car_7.046549740429511" accel="1.0" decel="5.0" sigma="0.0" length="4.5" maxSpeed="1.9573749278970864" /><vType id="vType_car_3.7791978460625764" accel="1.0" decel="5.0" sigma="0.0" length="4.5" maxSpeed="1.0497771794618267" /><vType id="vType_car_32.77909211459981" accel="1.0" decel="5.0" sigma="0.0" length="4.5" maxSpeed="9.105303365166614" /><vType id="vType_car_14.871585393645136" accel="1.0" decel="5.0" sigma="0.0" length="4.5" maxSpeed="4.1309959426792044" /><vType id="vType_car_31.48740443312538" accel="1.0" decel="5.0" sigma="0.0" length="4.5" maxSpeed="8.746501231423716" /><vType id="vType_car_17.484923582651504" accel="1.0" decel="5.0" sigma="0.0" length="4.5" maxSpeed="4.856923217403195" /><vType id="vType_car_3.6926996850556315" accel="1.0" decel="5.0" sigma="0.0" length="4.5" maxSpeed="1.0257499125154532" /><vType id="vType_car_16.863598346921087" accel="1.0" decel="5.0" sigma="0.0" length="4.5" maxSpeed="4.684332874144746" /><vType id="vType_car_22.89554811393793" accel="1.0" decel="5.0" sigma="0.0" length="4.5" maxSpeed="6.35987447609387" /><vType id="vType_car_19.99843604948402" accel="1.0" decel="5.0" sigma="0.0" length="4.5" maxSpeed="5.555121124856672" /><vType id="vType_car_13.497163778802832" accel="1.0" decel="5.0" sigma="0.0" length="4.5" maxSpeed="3.7492121607785647" /><vType id="vType_car_28.715179667214606" accel="1.0" decel="5.0" sigma="0.0" length="4.5" maxSpeed="7.976438796448502" /><vType id="vType_car_26.979713627865593" accel="1.0" decel="5.0" sigma="0.0" length="4.5" maxSpeed="7.494364896629331" /><vType id="vType_car_1.8895989230312882" accel="1.0" decel="5.0" sigma="0.0" length="4.5" maxSpeed="0.5248885897309133" /><vType id="vType_car_37.1114773876276" accel="1.0" decel="5.0" sigma="0.0" length="4.5" maxSpeed="10.308743718785445" /><vType id="vType_car_16.667181074313167" accel="1.0" decel="5.0" sigma="0.0" length="4.5" maxSpeed="4.629772520642546" /><vType id="vType_car_3.4192742416756645" accel="1.0" decel="5.0" sigma="0.0" length="4.5" maxSpeed="0.9497984004654624" /><vType id="vType_car_28.590813028998276" accel="1.0" decel="5.0" sigma="0.0" length="4.5" maxSpeed="7.941892508055076" /><vType id="vType_car_29.176409760080787" accel="1.0" decel="5.0" sigma="0.0" length="4.5" maxSpeed="8.104558266689107" /><vType id="vType_car_28.559221462595662" accel="1.0" decel="5.0" sigma="0.0" length="4.5" maxSpeed="7.933117072943239" /><route id="route_north_to_east" edges="north_to_center center_to_east" /><route id="route_north_to_south" edges="north_to_center center_to_south" /><route id="route_north_to_west" edges="north_to_center center_to_west" /><route id="route_east_to_west" edges="east_to_center center_to_west" /><route id="route_east_to_south" edges="east_to_center center_to_south" /><route id="route_east_to_north" edges="east_to_center center_to_north" /><route id="route_south_to_west" edges="south_to_center center_to_west" /><route id="route_south_to_north" edges="south_to_center center_to_north" /><route id="route_south_to_east" edges="south_to_center center_to_east" /><route id="route_west_to_south" edges="west_to_center center_to_south" /><route id="route_west_to_north" edges="west_to_center center_to_north" /><route id="route_west_to_east" edges="west_to_center center_to_east" /><vehicle id="veh361" type="vType_car_17.28149838182353" route="route_west_to_north" depart="0.03" /><vehicle id="veh376" type="vType_car_28.912523490231308" route="route_east_to_west" depart="0.03" /><vehicle id="veh383" type="vType_car_18.89124152817873" route="route_west_to_north" depart="0.03" /><vehicle id="veh386" type="vType_car_20.41298998140609" route="route_west_to_south" depart="0.03" /><vehicle id="veh390" type="vType_car_28.104980295557247" route="route_south_to_north" depart="3.70" /><vehicle id="veh392" type="vType_car_14.677553095294726" route="route_north_to_south" depart="9.50" /><vehicle id="veh395" type="vType_car_30.720618290358168" route="route_east_to_west" depart="23.67" /><vehicle id="veh396" type="vType_car_11.496399062156929" route="route_north_to_east" depart="23.97" /><vehicle id="veh397" type="vType_car_26.790051825114507" route="route_east_to_south" depart="26.01" /><vehicle id="veh400" type="vType_car_17.243376795727805" route="route_west_to_north" depart="27.27" /><vehicle id="veh402" type="vType_car_39.16073767430462" route="route_east_to_west" depart="33.74" /><vehicle id="veh403" type="vType_car_13.903081465351915" route="route_south_to_north" depart="42.58" /><vehicle id="veh404" type="vType_car_20.66568770669587" route="route_north_to_east" depart="44.01" /><vehicle id="veh405" type="vType_car_26.318007085252322" route="route_north_to_south" depart="45.54" /><vehicle id="veh411" type="vType_car_26.416616773092937" route="route_north_to_south" depart="48.01" /><vehicle id="veh413" type="vType_car_24.439797841378773" route="route_north_to_south" depart="48.14" /><vehicle id="veh416" type="vType_car_22.686764215282043" route="route_north_to_south" depart="50.64" /><vehicle id="veh423" type="vType_car_25.1981698880233" route="route_north_to_south" depart="54.38" /><vehicle id="veh424" type="vType_car_19.096154458635873" route="route_north_to_west" depart="57.21" /><vehicle id="veh426" type="vType_car_27.58467952186655" route="route_north_to_south" depart="58.21" /><vehicle id="veh427" type="vType_car_19.395582932644476" route="route_north_to_west" depart="59.65" /><vehicle id="veh428" type="vType_car_29.9846630204902" route="route_south_to_north" depart="60.98" /><vehicle id="veh431" type="vType_car_17.048765382160198" route="route_west_to_east" depart="61.98" /><vehicle id="veh433" type="vType_car_22.321754684570237" route="route_north_to_south" depart="63.08" /><vehicle id="veh434" type="vType_car_14.64818251728922" route="route_north_to_east" depart="65.38" /><vehicle id="veh435" type="vType_car_23.880084554325993" route="route_north_to_west" depart="66.08" /><vehicle id="veh438" type="vType_car_27.29196289433676" route="route_north_to_south" depart="68.35" /><vehicle id="veh440" type="vType_car_26.848095499082874" route="route_north_to_south" depart="70.41" /><vehicle id="veh442" type="vType_car_16.333033060281803" route="route_north_to_east" depart="70.85" /><vehicle id="veh445" type="vType_car_25.44536174452423" route="route_north_to_south" depart="71.62" /><vehicle id="veh449" type="vType_car_18.67884499737089" route="route_north_to_east" depart="74.82" /><vehicle id="veh450" type="vType_car_7.046549740429511" route="route_east_to_north" depart="74.85" /><vehicle id="veh453" type="vType_car_32.77909211459981" route="route_north_to_south" depart="75.65" /><vehicle id="veh455" type="vType_car_14.871585393645136" route="route_west_to_north" depart="76.05" /><vehicle id="veh456" type="vType_car_31.48740443312538" route="route_north_to_south" depart="77.18" /><vehicle id="veh457" type="vType_car_17.484923582651504" route="route_north_to_east" depart="77.18" /><vehicle id="veh460" type="vType_car_16.863598346921087" route="route_north_to_east" depart="78.65" /><vehicle id="veh461" type="vType_car_22.89554811393793" route="route_north_to_south" depart="78.82" /><vehicle id="veh465" type="vType_car_19.99843604948402" route="route_north_to_east" depart="82.22" /><vehicle id="veh466" type="vType_car_13.497163778802832" route="route_north_to_east" depart="82.68" /><vehicle id="veh471" type="vType_car_26.979713627865593" route="route_south_to_north" depart="88.15" /><vehicle id="veh475" type="vType_car_37.1114773876276" route="route_north_to_south" depart="92.42" /><vehicle id="veh476" type="vType_car_16.667181074313167" route="route_north_to_west" depart="95.22" /><vehicle id="veh479" type="vType_car_28.590813028998276" route="route_west_to_east" depart="102.66" /><vehicle id="veh482" type="vType_car_29.176409760080787" route="route_east_to_west" depart="107.82" /><vehicle id="veh483" type="vType_car_28.559221462595662" route="route_east_to_west" depart="109.09" /></routes>