<?xml version='1.0' encoding='utf-8'?>
<routes><vType id="vType_car_14.091370735372744" accel="1.0" decel="5.0" sigma="0.0" length="4.5" maxSpeed="3.914269648714651" /><vType id="vType_car_27.623483709276552" accel="1.0" decel="5.0" sigma="0.0" length="4.5" maxSpeed="7.6731899192434865" /><vType id="vType_car_14.215490389393848" accel="1.0" decel="5.0" sigma="0.0" length="4.5" maxSpeed="3.94874733038718" /><vType id="vType_car_7.361705779749769" accel="1.0" decel="5.0" sigma="0.0" length="4.5" maxSpeed="2.0449182721527137" /><vType id="vType_car_25.769905229607367" accel="1.0" decel="5.0" sigma="0.0" length="4.5" maxSpeed="7.158307008224268" /><vType id="vType_car_7.05596721246406" accel="1.0" decel="5.0" sigma="0.0" length="4.5" maxSpeed="1.9599908923511276" /><vType id="vType_car_30.195370251706464" accel="1.0" decel="5.0" sigma="0.0" length="4.5" maxSpeed="8.38760284769624" /><vType id="vType_car_4.2558676314961525" accel="1.0" decel="5.0" sigma="0.0" length="4.5" maxSpeed="1.1821854531933758" /><vType id="vType_car_35.11716429683513" accel="1.0" decel="5.0" sigma="0.0" length="4.5" maxSpeed="9.75476786023198" /><vType id="vType_car_7.095670154302321" accel="1.0" decel="5.0" sigma="0.0" length="4.5" maxSpeed="1.9710194873062004" /><vType id="vType_car_42.13601469766355" accel="1.0" decel="5.0" sigma="0.0" length="4.5" maxSpeed="11.704448527128763" /><vType id="vType_car_3.357003538406551" accel="1.0" decel="5.0" sigma="0.0" length="4.5" maxSpeed="0.9325009828907086" /><vType id="vType_car_21.53605343189504" accel="1.0" decel="5.0" sigma="0.0" length="4.5" maxSpeed="5.98223706441529" /><vType id="vType_car_26.31892382178735" accel="1.0" decel="5.0" sigma="0.0" length="4.5" maxSpeed="7.310812172718708" /><vType id="vType_car_3.715954404771418" accel="1.0" decel="5.0" sigma="0.0" length="4.5" maxSpeed="1.0322095568809495" /><vType id="vType_car_30.120852899556816" accel="1.0" decel="5.0" sigma="0.0" length="4.5" maxSpeed="8.366903583210226" /><vType id="vType_car_4.527346561241057" accel="1.0" decel="5.0" sigma="0.0" length="4.5" maxSpeed="1.2575962670114047" /><vType id="vType_car_3.3842232563972985" accel="1.0" decel="5.0" sigma="0.0" length="4.5" maxSpeed="0.9400620156659162" /><vType id="vType_car_1.8161047923415328" accel="1.0" decel="5.0" sigma="0.0" length="4.5" maxSpeed="0.5044735534282035" /><vType id="vType_car_6.209932838615879" accel="1.0" decel="5.0" sigma="0.0" length="4.5" maxSpeed="1.7249813440599664" /><vType id="vType_car_21.517511337152623" accel="1.0" decel="5.0" sigma="0.0" length="4.5" maxSpeed="5.977086482542395" /><vType id="vType_car_26.062968264057368" accel="1.0" decel="5.0" sigma="0.0" length="4.5" maxSpeed="7.239713406682602" /><vType id="vType_car_25.934534406107495" accel="1.0" decel="5.0" sigma="0.0" length="4.5" maxSpeed="7.204037335029859" /><vType id="vType_car_27.908476372692387" accel="1.0" decel="5.0" sigma="0.0" length="4.5" maxSpeed="7.752354547970107" /><vType id="vType_car_43.894861310270365" accel="1.0" decel="5.0" sigma="0.0" length="4.5" maxSpeed="12.193017030630656" /><vType id="vType_car_16.167919145334498" accel="1.0" decel="5.0" sigma="0.0" length="4.5" maxSpeed="4.491088651481805" /><vType id="vType_car_17.83068419177335" accel="1.0" decel="5.0" sigma="0.0" length="4.5" maxSpeed="4.952967831048153" /><vType id="vType_car_50.4418561826474" accel="1.0" decel="5.0" sigma="0.0" length="4.5" maxSpeed="14.011626717402056" /><vType id="vType_car_34.310373115648204" accel="1.0" decel="5.0" sigma="0.0" length="4.5" maxSpeed="9.530659198791168" /><vType id="vType_car_30.99193190220245" accel="1.0" decel="5.0" sigma="0.0" length="4.5" maxSpeed="8.608869972834013" /><vType id="vType_car_65.78884107333221" accel="1.0" decel="5.0" sigma="0.0" length="4.5" maxSpeed="18.274678075925614" /><vType id="vType_car_73.35999226810803" accel="1.0" decel="5.0" sigma="0.0" length="4.5" maxSpeed="20.37777563003001" /><vType id="vType_car_38.58781632040554" accel="1.0" decel="5.0" sigma="0.0" length="4.5" maxSpeed="10.718837866779316" /><vType id="vType_car_64.12705328335488" accel="1.0" decel="5.0" sigma="0.0" length="4.5" maxSpeed="17.81307035648747" /><vType id="vType_car_62.42797661220348" accel="1.0" decel="5.0" sigma="0.0" length="4.5" maxSpeed="17.341104614500967" /><vType id="vType_car_4.481501143715834" accel="1.0" decel="5.0" sigma="0.0" length="4.5" maxSpeed="1.2448614288099538" /><vType id="vType_car_68.21604063961145" accel="1.0" decel="5.0" sigma="0.0" length="4.5" maxSpeed="18.948900177669845" /><vType id="vType_car_7.693660304457844" accel="1.0" decel="5.0" sigma="0.0" length="4.5" maxSpeed="2.137127862349401" /><vType id="vType_car_15.255432496700315" accel="1.0" decel="5.0" sigma="0.0" length="4.5" maxSpeed="4.23762013797231" /><vType id="vType_car_3.445315016736598" accel="1.0" decel="5.0" sigma="0.0" length="4.5" maxSpeed="0.9570319490934993" /><vType id="vType_car_30.379602139586186" accel="1.0" decel="5.0" sigma="0.0" length="4.5" maxSpeed="8.438778372107274" /><vType id="vType_car_16.475062269409214" accel="1.0" decel="5.0" sigma="0.0" length="4.5" maxSpeed="4.576406185947004" /><vType id="vType_car_12.888856102214534" accel="1.0" decel="5.0" sigma="0.0" length="4.5" maxSpeed="3.580237806170704" /><vType id="vType_car_6.29270226140576" accel="1.0" decel="5.0" sigma="0.0" length="4.5" maxSpeed="1.747972850390489" /><vType id="vType_car_13.066108074727218" accel="1.0" decel="5.0" sigma="0.0" length="4.5" maxSpeed="3.629474465202005" /><vType id="vType_car_9.469679390223169" accel="1.0" decel="5.0" sigma="0.0" length="4.5" maxSpeed="2.6304664972842136" /><vType id="vType_car_16.355575619559986" accel="1.0" decel="5.0" sigma="0.0" length="4.5" maxSpeed="4.543215449877773" /><vType id="vType_car_4.090683412672149" accel="1.0" decel="5.0" sigma="0.0" length="4.5" maxSpeed="1.1363009479644859" /><vType id="vType_car_5.061957638269915" accel="1.0" decel="5.0" sigma="0.0" length="4.5" maxSpeed="1.4060993439638652" /><vType id="vType_car_4.518084356128096" accel="1.0" decel="5.0" sigma="0.0" length="4.5" maxSpeed="1.2550234322578044" /><route id="route_north_to_east" edges="north_to_center center_to_east" /><route id="route_north_to_south" edges="north_to_center center_to_south" /><route id="route_north_to_west" edges="north_to_center center_to_west" /><route id="route_east_to_west" edges="east_to_center center_to_west" /><route id="route_east_to_south" edges="east_to_center center_to_south" /><route id="route_east_to_north" edges="east_to_center center_to_north" /><route id="route_south_to_west" edges="south_to_center center_to_west" /><route id="route_south_to_north" edges="south_to_center center_to_north" /><route id="route_south_to_east" edges="south_to_center center_to_east" /><route id="route_west_to_south" edges="west_to_center center_to_south" /><route id="route_west_to_north" edges="west_to_center center_to_north" /><route id="route_west_to_east" edges="west_to_center center_to_east" /><vehicle id="veh417" type="vType_car_14.091370735372744" route="route_west_to_north" depart="0.03" /><vehicle id="veh419" type="vType_car_27.623483709276552" route="route_west_to_east" depart="0.03" /><vehicle id="veh388" type="vType_car_14.215490389393848" route="route_west_to_north" depart="0.03" /><vehicle id="veh559" type="vType_car_7.361705779749769" route="route_north_to_south" depart="0.03" /><vehicle id="veh568" type="vType_car_7.05596721246406" route="route_north_to_east" depart="0.03" /><vehicle id="veh576" type="vType_car_35.11716429683513" route="route_south_to_west" depart="0.30" /><vehicle id="veh578" type="vType_car_42.13601469766355" route="route_south_to_north" depart="0.70" /><vehicle id="veh580" type="vType_car_21.53605343189504" route="route_east_to_west" depart="1.27" /><vehicle id="veh582" type="vType_car_26.31892382178735" route="route_south_to_north" depart="2.07" /><vehicle id="veh588" type="vType_car_30.120852899556816" route="route_south_to_north" depart="5.27" /><vehicle id="veh600" type="vType_car_21.517511337152623" route="route_west_to_north" depart="16.51" /><vehicle id="veh603" type="vType_car_26.062968264057368" route="route_west_to_south" depart="17.34" /><vehicle id="veh605" type="vType_car_25.934534406107495" route="route_west_to_north" depart="20.35" /><vehicle id="veh607" type="vType_car_27.908476372692387" route="route_west_to_south" depart="20.41" /><vehicle id="veh608" type="vType_car_43.894861310270365" route="route_west_to_east" depart="23.25" /><vehicle id="veh609" type="vType_car_16.167919145334498" route="route_west_to_north" depart="23.28" /><vehicle id="veh610" type="vType_car_17.83068419177335" route="route_west_to_north" depart="24.85" /><vehicle id="veh612" type="vType_car_50.4418561826474" route="route_west_to_east" depart="25.02" /><vehicle id="veh613" type="vType_car_34.310373115648204" route="route_west_to_south" depart="27.08" /><vehicle id="veh614" type="vType_car_30.99193190220245" route="route_east_to_west" depart="27.25" /><vehicle id="veh616" type="vType_car_65.78884107333221" route="route_west_to_east" depart="33.92" /><vehicle id="veh617" type="vType_car_73.35999226810803" route="route_west_to_east" depart="35.85" /><vehicle id="veh619" type="vType_car_38.58781632040554" route="route_west_to_south" depart="38.12" /><vehicle id="veh621" type="vType_car_64.12705328335488" route="route_west_to_east" depart="41.76" /><vehicle id="veh622" type="vType_car_62.42797661220348" route="route_west_to_east" depart="45.99" /><vehicle id="veh624" type="vType_car_68.21604063961145" route="route_east_to_west" depart="48.23" /><vehicle id="veh629" type="vType_car_15.255432496700315" route="route_east_to_north" depart="52.36" /><vehicle id="veh631" type="vType_car_30.379602139586186" route="route_north_to_south" depart="53.07" /><vehicle id="veh632" type="vType_car_16.475062269409214" route="route_north_to_east" depart="53.47" /><vehicle id="veh637" type="vType_car_13.066108074727218" route="route_east_to_north" depart="56.10" /></routes>