<?xml version='1.0' encoding='utf-8'?>
<routes><vType id="vType_car_17.483216954005048" accel="1.0" decel="5.0" sigma="0.0" length="4.5" maxSpeed="4.856449153890291" /><vType id="vType_car_3.9129528329166" accel="1.0" decel="5.0" sigma="0.0" length="4.5" maxSpeed="1.0869313424768332" /><vType id="vType_car_3.7185798729191615" accel="1.0" decel="5.0" sigma="0.0" length="4.5" maxSpeed="1.032938853588656" /><vType id="vType_car_4.980341460232165" accel="1.0" decel="5.0" sigma="0.0" length="4.5" maxSpeed="1.3834281833978237" /><vType id="vType_car_32.49404204008168" accel="1.0" decel="5.0" sigma="0.0" length="4.5" maxSpeed="9.026122788911577" /><vType id="vType_car_6.836409721532592" accel="1.0" decel="5.0" sigma="0.0" length="4.5" maxSpeed="1.89900270042572" /><vType id="vType_car_9.137078351618028" accel="1.0" decel="5.0" sigma="0.0" length="4.5" maxSpeed="2.5380773198938966" /><vType id="vType_car_15.172986236518728" accel="1.0" decel="5.0" sigma="0.0" length="4.5" maxSpeed="4.2147183990329795" /><vType id="vType_car_10.397156754204467" accel="1.0" decel="5.0" sigma="0.0" length="4.5" maxSpeed="2.88809909839013" /><vType id="vType_car_14.307314239808207" accel="1.0" decel="5.0" sigma="0.0" length="4.5" maxSpeed="3.9742539555022796" /><vType id="vType_car_24.16244306948652" accel="1.0" decel="5.0" sigma="0.0" length="4.5" maxSpeed="6.711789741524034" /><vType id="vType_car_42.30596001043703" accel="1.0" decel="5.0" sigma="0.0" length="4.5" maxSpeed="11.75165555845473" /><vType id="vType_car_26.483743649139992" accel="1.0" decel="5.0" sigma="0.0" length="4.5" maxSpeed="7.356595458094442" /><vType id="vType_car_14.696047377341811" accel="1.0" decel="5.0" sigma="0.0" length="4.5" maxSpeed="4.082235382594948" /><vType id="vType_car_16.316814170698574" accel="1.0" decel="5.0" sigma="0.0" length="4.5" maxSpeed="4.532448380749604" /><vType id="vType_car_44.263668394469946" accel="1.0" decel="5.0" sigma="0.0" length="4.5" maxSpeed="12.295463442908318" /><vType id="vType_car_58.40199860942424" accel="1.0" decel="5.0" sigma="0.0" length="4.5" maxSpeed="16.22277739150673" /><vType id="vType_car_4.314794857272883" accel="1.0" decel="5.0" sigma="0.0" length="4.5" maxSpeed="1.1985541270202453" /><vType id="vType_car_4.630136875292751" accel="1.0" decel="5.0" sigma="0.0" length="4.5" maxSpeed="1.2861491320257643" /><vType id="vType_car_3.695896260829649" accel="1.0" decel="5.0" sigma="0.0" length="4.5" maxSpeed="1.026637850230458" /><vType id="vType_car_4.3531669078494435" accel="1.0" decel="5.0" sigma="0.0" length="4.5" maxSpeed="1.2092130299581787" /><vType id="vType_car_4.336990004547696" accel="1.0" decel="5.0" sigma="0.0" length="4.5" maxSpeed="1.2047194457076933" /><vType id="vType_car_4.296484359537094" accel="1.0" decel="5.0" sigma="0.0" length="4.5" maxSpeed="1.1934678776491927" /><vType id="vType_car_37.85357932622433" accel="1.0" decel="5.0" sigma="0.0" length="4.5" maxSpeed="10.514883146173425" /><vType id="vType_car_17.265610510508637" accel="1.0" decel="5.0" sigma="0.0" length="4.5" maxSpeed="4.7960029195857325" /><vType id="vType_car_3.838678765388267" accel="1.0" decel="5.0" sigma="0.0" length="4.5" maxSpeed="1.0662996570522962" /><vType id="vType_car_6.786357706237752" accel="1.0" decel="5.0" sigma="0.0" length="4.5" maxSpeed="1.8850993628438197" /><vType id="vType_car_35.87768063358971" accel="1.0" decel="5.0" sigma="0.0" length="4.5" maxSpeed="9.966022398219364" /><vType id="vType_car_4.511469507445657" accel="1.0" decel="5.0" sigma="0.0" length="4.5" maxSpeed="1.2531859742904603" /><vType id="vType_car_3.6063956445216596" accel="1.0" decel="5.0" sigma="0.0" length="4.5" maxSpeed="1.001776567922683" /><vType id="vType_car_10.780661456562227" accel="1.0" decel="5.0" sigma="0.0" length="4.5" maxSpeed="2.994628182378396" /><vType id="vType_car_2.3800643011199902" accel="1.0" decel="5.0" sigma="0.0" length="4.5" maxSpeed="0.6611289725333306" /><vType id="vType_car_3.5237321294047885" accel="1.0" decel="5.0" sigma="0.0" length="4.5" maxSpeed="0.978814480390219" /><vType id="vType_car_6.063494550681297" accel="1.0" decel="5.0" sigma="0.0" length="4.5" maxSpeed="1.6843040418559159" /><vType id="vType_car_27.1041612706208" accel="1.0" decel="5.0" sigma="0.0" length="4.5" maxSpeed="7.528933686283556" /><vType id="vType_car_3.1322063372487015" accel="1.0" decel="5.0" sigma="0.0" length="4.5" maxSpeed="0.8700573159024171" /><vType id="vType_car_23.05151446447408" accel="1.0" decel="5.0" sigma="0.0" length="4.5" maxSpeed="6.403198462353911" /><vType id="vType_car_27.637537018135436" accel="1.0" decel="5.0" sigma="0.0" length="4.5" maxSpeed="7.677093616148732" /><vType id="vType_car_18.952822089158623" accel="1.0" decel="5.0" sigma="0.0" length="4.5" maxSpeed="5.2646728025440614" /><vType id="vType_car_24.84979751725434" accel="1.0" decel="5.0" sigma="0.0" length="4.5" maxSpeed="6.90272153257065" /><vType id="vType_car_4.849017495844238" accel="1.0" decel="5.0" sigma="0.0" length="4.5" maxSpeed="1.346949304401177" /><vType id="vType_car_4.0220631061621965" accel="1.0" decel="5.0" sigma="0.0" length="4.5" maxSpeed="1.1172397517117212" /><vType id="vType_car_24.595129064115056" accel="1.0" decel="5.0" sigma="0.0" length="4.5" maxSpeed="6.831980295587515" /><vType id="vType_car_4.9491966706183765" accel="1.0" decel="5.0" sigma="0.0" length="4.5" maxSpeed="1.374776852949549" /><vType id="vType_car_2.936443441170657" accel="1.0" decel="5.0" sigma="0.0" length="4.5" maxSpeed="0.8156787336585158" /><vType id="vType_car_30.18190116284671" accel="1.0" decel="5.0" sigma="0.0" length="4.5" maxSpeed="8.383861434124086" /><vType id="vType_car_49.69751723065148" accel="1.0" decel="5.0" sigma="0.0" length="4.5" maxSpeed="13.804865897403188" /><vType id="vType_car_4.9960192189998" accel="1.0" decel="5.0" sigma="0.0" length="4.5" maxSpeed="1.3877831163888332" /><vType id="vType_car_16.640682908736984" accel="1.0" decel="5.0" sigma="0.0" length="4.5" maxSpeed="4.622411919093607" /><vType id="vType_car_42.64465217262232" accel="1.0" decel="5.0" sigma="0.0" length="4.5" maxSpeed="11.845736714617312" /><vType id="vType_car_32.63883060504554" accel="1.0" decel="5.0" sigma="0.0" length="4.5" maxSpeed="9.066341834734873" /><vType id="vType_car_2.99517230999407" accel="1.0" decel="5.0" sigma="0.0" length="4.5" maxSpeed="0.8319923083316861" /><vType id="vType_car_17.181234864774403" accel="1.0" decel="5.0" sigma="0.0" length="4.5" maxSpeed="4.772565240215112" /><vType id="vType_car_29.463762472352496" accel="1.0" decel="5.0" sigma="0.0" length="4.5" maxSpeed="8.184378464542359" /><vType id="vType_truck_4.760981330827112" accel="1.0" decel="5.0" sigma="0.0" length="8" maxSpeed="1.3224948141186421" /><vType id="vType_car_8.703530890973395" accel="1.0" decel="5.0" sigma="0.0" length="4.5" maxSpeed="2.417647469714832" /><vType id="vType_car_16.952092956812976" accel="1.0" decel="5.0" sigma="0.0" length="4.5" maxSpeed="4.708914710225827" /><vType id="vType_car_5.265366907531593" accel="1.0" decel="5.0" sigma="0.0" length="4.5" maxSpeed="1.4626019187587758" /><vType id="vType_car_1.4584335757814264" accel="1.0" decel="5.0" sigma="0.0" length="4.5" maxSpeed="0.40512043771706285" /><route id="route_north_to_east" edges="north_to_center center_to_east" /><route id="route_north_to_south" edges="north_to_center center_to_south" /><route id="route_north_to_west" edges="north_to_center center_to_west" /><route id="route_east_to_west" edges="east_to_center center_to_west" /><route id="route_east_to_south" edges="east_to_center center_to_south" /><route id="route_east_to_north" edges="east_to_center center_to_north" /><route id="route_south_to_west" edges="south_to_center center_to_west" /><route id="route_south_to_north" edges="south_to_center center_to_north" /><route id="route_south_to_east" edges="south_to_center center_to_east" /><route id="route_west_to_south" edges="west_to_center center_to_south" /><route id="route_west_to_north" edges="west_to_center center_to_north" /><route id="route_west_to_east" edges="west_to_center center_to_east" /><vehicle id="veh1359" type="vType_car_17.483216954005048" route="route_south_to_north" depart="0.04" /><vehicle id="veh1364" type="vType_car_32.49404204008168" route="route_east_to_south" depart="0.04" /><vehicle id="veh1366" type="vType_car_15.172986236518728" route="route_south_to_east" depart="2.22" /><vehicle id="veh1367" type="vType_car_10.397156754204467" route="route_east_to_north" depart="2.79" /><vehicle id="veh1368" type="vType_car_14.307314239808207" route="route_north_to_south" depart="2.79" /><vehicle id="veh1369" type="vType_car_24.16244306948652" route="route_east_to_south" depart="4.26" /><vehicle id="veh1370" type="vType_car_42.30596001043703" route="route_east_to_west" depart="5.47" /><vehicle id="veh1372" type="vType_car_26.483743649139992" route="route_east_to_south" depart="6.72" /><vehicle id="veh1380" type="vType_car_14.696047377341811" route="route_south_to_east" depart="8.51" /><vehicle id="veh1381" type="vType_car_16.316814170698574" route="route_south_to_north" depart="10.62" /><vehicle id="veh1382" type="vType_car_44.263668394469946" route="route_east_to_west" depart="10.87" /><vehicle id="veh1383" type="vType_car_58.40199860942424" route="route_east_to_west" depart="11.48" /><vehicle id="veh1396" type="vType_car_37.85357932622433" route="route_south_to_west" depart="18.31" /><vehicle id="veh1398" type="vType_car_17.265610510508637" route="route_north_to_west" depart="20.13" /><vehicle id="veh1404" type="vType_car_35.87768063358971" route="route_south_to_north" depart="22.28" /><vehicle id="veh1415" type="vType_car_27.1041612706208" route="route_north_to_south" depart="32.29" /><vehicle id="veh1417" type="vType_car_23.05151446447408" route="route_north_to_west" depart="34.76" /><vehicle id="veh1418" type="vType_car_27.637537018135436" route="route_north_to_south" depart="37.04" /><vehicle id="veh1419" type="vType_car_18.952822089158623" route="route_north_to_south" depart="37.22" /><vehicle id="veh1420" type="vType_car_24.84979751725434" route="route_north_to_south" depart="38.26" /><vehicle id="veh1427" type="vType_car_24.595129064115056" route="route_north_to_south" depart="42.12" /><vehicle id="veh1430" type="vType_car_30.18190116284671" route="route_north_to_south" depart="46.23" /><vehicle id="veh1431" type="vType_car_49.69751723065148" route="route_north_to_south" depart="46.81" /><vehicle id="veh1438" type="vType_car_42.64465217262232" route="route_south_to_north" depart="49.88" /><vehicle id="veh1441" type="vType_car_32.63883060504554" route="route_north_to_south" depart="51.20" /><vehicle id="veh1444" type="vType_car_17.181234864774403" route="route_north_to_west" depart="53.46" /><vehicle id="veh1446" type="vType_car_29.463762472352496" route="route_north_to_south" depart="54.35" /></routes>