<?xml version='1.0' encoding='utf-8'?>
<routes><vType id="vType_car_32.237590085696446" accel="1.0" decel="5.0" sigma="0.0" length="4.5" maxSpeed="8.954886134915679" /><vType id="vType_car_11.166339011537309" accel="1.0" decel="5.0" sigma="0.0" length="4.5" maxSpeed="3.101760836538141" /><vType id="vType_car_9.018025046244473" accel="1.0" decel="5.0" sigma="0.0" length="4.5" maxSpeed="2.5050069572901315" /><vType id="vType_car_3.777726317540351" accel="1.0" decel="5.0" sigma="0.0" length="4.5" maxSpeed="1.0493684215389862" /><vType id="vType_car_22.076325789342746" accel="1.0" decel="5.0" sigma="0.0" length="4.5" maxSpeed="6.132312719261874" /><vType id="vType_car_10.605510024176672" accel="1.0" decel="5.0" sigma="0.0" length="4.5" maxSpeed="2.945975006715742" /><vType id="vType_car_47.76356336441318" accel="1.0" decel="5.0" sigma="0.0" length="4.5" maxSpeed="13.267656490114772" /><vType id="vType_car_30.138828849472475" accel="1.0" decel="5.0" sigma="0.0" length="4.5" maxSpeed="8.371896902631242" /><vType id="vType_car_11.97271271361054" accel="1.0" decel="5.0" sigma="0.0" length="4.5" maxSpeed="3.325753531558483" /><vType id="vType_car_28.634469463239355" accel="1.0" decel="5.0" sigma="0.0" length="4.5" maxSpeed="7.954019295344265" /><vType id="vType_car_30.35112641653931" accel="1.0" decel="5.0" sigma="0.0" length="4.5" maxSpeed="8.430868449038696" /><vType id="vType_car_56.04388997547528" accel="1.0" decel="5.0" sigma="0.0" length="4.5" maxSpeed="15.567747215409799" /><vType id="vType_car_3.695342796234142" accel="1.0" decel="5.0" sigma="0.0" length="4.5" maxSpeed="1.0264841100650395" /><vType id="vType_truck_40.21720474862905" accel="1.0" decel="5.0" sigma="0.0" length="8" maxSpeed="11.17144576350807" /><vType id="vType_car_31.09314131215763" accel="1.0" decel="5.0" sigma="0.0" length="4.5" maxSpeed="8.636983697821563" /><vType id="vType_car_12.19093694072499" accel="1.0" decel="5.0" sigma="0.0" length="4.5" maxSpeed="3.3863713724236084" /><vType id="vType_car_32.87542300002588" accel="1.0" decel="5.0" sigma="0.0" length="4.5" maxSpeed="9.132061944451634" /><vType id="vType_car_31.79737677381058" accel="1.0" decel="5.0" sigma="0.0" length="4.5" maxSpeed="8.832604659391828" /><vType id="vType_car_7.768555777723897" accel="1.0" decel="5.0" sigma="0.0" length="4.5" maxSpeed="2.15793216047886" /><vType id="vType_car_53.18183564539093" accel="1.0" decel="5.0" sigma="0.0" length="4.5" maxSpeed="14.772732123719702" /><vType id="vType_car_34.632164755311145" accel="1.0" decel="5.0" sigma="0.0" length="4.5" maxSpeed="9.620045765364207" /><vType id="vType_car_37.840029165155926" accel="1.0" decel="5.0" sigma="0.0" length="4.5" maxSpeed="10.511119212543312" /><vType id="vType_car_34.57662225410199" accel="1.0" decel="5.0" sigma="0.0" length="4.5" maxSpeed="9.60461729280611" /><vType id="vType_car_13.38215236670708" accel="1.0" decel="5.0" sigma="0.0" length="4.5" maxSpeed="3.717264546307522" /><vType id="vType_car_18.285061752232124" accel="1.0" decel="5.0" sigma="0.0" length="4.5" maxSpeed="5.079183820064479" /><vType id="vType_car_6.726748979489435" accel="1.0" decel="5.0" sigma="0.0" length="4.5" maxSpeed="1.8685413831915096" /><vType id="vType_car_64.00958724177731" accel="1.0" decel="5.0" sigma="0.0" length="4.5" maxSpeed="17.780440900493698" /><vType id="vType_car_44.437172382544844" accel="1.0" decel="5.0" sigma="0.0" length="4.5" maxSpeed="12.343658995151346" /><vType id="vType_car_32.52978547022022" accel="1.0" decel="5.0" sigma="0.0" length="4.5" maxSpeed="9.036051519505616" /><vType id="vType_car_66.6803333961362" accel="1.0" decel="5.0" sigma="0.0" length="4.5" maxSpeed="18.522314832260058" /><vType id="vType_car_4.717558769911505" accel="1.0" decel="5.0" sigma="0.0" length="4.5" maxSpeed="1.3104329916420847" /><vType id="vType_car_21.102166166482192" accel="1.0" decel="5.0" sigma="0.0" length="4.5" maxSpeed="5.861712824022831" /><vType id="vType_car_5.125866987927369" accel="1.0" decel="5.0" sigma="0.0" length="4.5" maxSpeed="1.4238519410909356" /><vType id="vType_car_25.186015434787926" accel="1.0" decel="5.0" sigma="0.0" length="4.5" maxSpeed="6.9961153985522015" /><vType id="vType_car_17.29581550587441" accel="1.0" decel="5.0" sigma="0.0" length="4.5" maxSpeed="4.804393196076225" /><vType id="vType_car_22.8447734815185" accel="1.0" decel="5.0" sigma="0.0" length="4.5" maxSpeed="6.345770411532917" /><vType id="vType_car_4.657926601819389" accel="1.0" decel="5.0" sigma="0.0" length="4.5" maxSpeed="1.2938685005053858" /><vType id="vType_car_21.58711743659399" accel="1.0" decel="5.0" sigma="0.0" length="4.5" maxSpeed="5.996421510164997" /><vType id="vType_car_26.71440061078084" accel="1.0" decel="5.0" sigma="0.0" length="4.5" maxSpeed="7.42066683632801" /><vType id="vType_car_14.891641380361401" accel="1.0" decel="5.0" sigma="0.0" length="4.5" maxSpeed="4.136567050100389" /><vType id="vType_car_15.903730605391836" accel="1.0" decel="5.0" sigma="0.0" length="4.5" maxSpeed="4.417702945942176" /><vType id="vType_car_20.61097160073923" accel="1.0" decel="5.0" sigma="0.0" length="4.5" maxSpeed="5.72526988909423" /><vType id="vType_car_10.035816550556014" accel="1.0" decel="5.0" sigma="0.0" length="4.5" maxSpeed="2.7877268195988925" /><vType id="vType_car_20.316330774719944" accel="1.0" decel="5.0" sigma="0.0" length="4.5" maxSpeed="5.643425215199985" /><vType id="vType_car_26.758806018875532" accel="1.0" decel="5.0" sigma="0.0" length="4.5" maxSpeed="7.43300167190987" /><vType id="vType_car_22.369441112897967" accel="1.0" decel="5.0" sigma="0.0" length="4.5" maxSpeed="6.213733642471658" /><vType id="vType_car_3.9868277387940236" accel="1.0" decel="5.0" sigma="0.0" length="4.5" maxSpeed="1.1074521496650065" /><vType id="vType_car_19.17100031888059" accel="1.0" decel="5.0" sigma="0.0" length="4.5" maxSpeed="5.325277866355719" /><vType id="vType_car_3.67931518923691" accel="1.0" decel="5.0" sigma="0.0" length="4.5" maxSpeed="1.0220319970102527" /><vType id="vType_car_18.100795984246624" accel="1.0" decel="5.0" sigma="0.0" length="4.5" maxSpeed="5.027998884512951" /><vType id="vType_car_22.08390607786854" accel="1.0" decel="5.0" sigma="0.0" length="4.5" maxSpeed="6.134418354963484" /><vType id="vType_car_17.243822894533157" accel="1.0" decel="5.0" sigma="0.0" length="4.5" maxSpeed="4.789950804036988" /><vType id="vType_car_5.58856047700646" accel="1.0" decel="5.0" sigma="0.0" length="4.5" maxSpeed="1.5523779102795723" /><vType id="vType_car_26.504691864775104" accel="1.0" decel="5.0" sigma="0.0" length="4.5" maxSpeed="7.362414406881973" /><vType id="vType_car_29.78867116328701" accel="1.0" decel="5.0" sigma="0.0" length="4.5" maxSpeed="8.274630878690836" /><vType id="vType_car_16.585669136123837" accel="1.0" decel="5.0" sigma="0.0" length="4.5" maxSpeed="4.607130315589955" /><vType id="vType_car_31.83976517946425" accel="1.0" decel="5.0" sigma="0.0" length="4.5" maxSpeed="8.844379216517847" /><vType id="vType_car_10.82006066368578" accel="1.0" decel="5.0" sigma="0.0" length="4.5" maxSpeed="3.0055724065793834" /><vType id="vType_car_22.187272751947646" accel="1.0" decel="5.0" sigma="0.0" length="4.5" maxSpeed="6.163131319985457" /><vType id="vType_car_16.824989979032477" accel="1.0" decel="5.0" sigma="0.0" length="4.5" maxSpeed="4.673608327509021" /><vType id="vType_car_30.22365586522304" accel="1.0" decel="5.0" sigma="0.0" length="4.5" maxSpeed="8.395459962561956" /><vType id="vType_car_11.025528079705095" accel="1.0" decel="5.0" sigma="0.0" length="4.5" maxSpeed="3.062646688806971" /><vType id="vType_car_17.024292553806834" accel="1.0" decel="5.0" sigma="0.0" length="4.5" maxSpeed="4.728970153835232" /><vType id="vType_car_25.97018125794777" accel="1.0" decel="5.0" sigma="0.0" length="4.5" maxSpeed="7.213939238318825" /><vType id="vType_car_30.936041476502044" accel="1.0" decel="5.0" sigma="0.0" length="4.5" maxSpeed="8.5933448545839" /><vType id="vType_car_27.506670588911764" accel="1.0" decel="5.0" sigma="0.0" length="4.5" maxSpeed="7.640741830253267" /><vType id="vType_car_21.931957879742107" accel="1.0" decel="5.0" sigma="0.0" length="4.5" maxSpeed="6.092210522150586" /><vType id="vType_car_6.917696959179991" accel="1.0" decel="5.0" sigma="0.0" length="4.5" maxSpeed="1.9215824886611086" /><vType id="vType_car_7.371731687822052" accel="1.0" decel="5.0" sigma="0.0" length="4.5" maxSpeed="2.0477032466172367" /><vType id="vType_car_19.004444164346886" accel="1.0" decel="5.0" sigma="0.0" length="4.5" maxSpeed="5.279012267874135" /><vType id="vType_car_36.30961805837512" accel="1.0" decel="5.0" sigma="0.0" length="4.5" maxSpeed="10.086005016215312" /><vType id="vType_car_20.909642258462938" accel="1.0" decel="5.0" sigma="0.0" length="4.5" maxSpeed="5.8082339606841495" /><vType id="vType_car_14.382652934012762" accel="1.0" decel="5.0" sigma="0.0" length="4.5" maxSpeed="3.9951813705591004" /><vType id="vType_car_7.234727220882888" accel="1.0" decel="5.0" sigma="0.0" length="4.5" maxSpeed="2.009646450245247" /><vType id="vType_car_21.48871999434876" accel="1.0" decel="5.0" sigma="0.0" length="4.5" maxSpeed="5.9690888873191" /><vType id="vType_car_4.127873831151616" accel="1.0" decel="5.0" sigma="0.0" length="4.5" maxSpeed="1.1466316197643378" /><vType id="vType_car_25.602590063831073" accel="1.0" decel="5.0" sigma="0.0" length="4.5" maxSpeed="7.111830573286409" /><vType id="vType_car_11.122079784764678" accel="1.0" decel="5.0" sigma="0.0" length="4.5" maxSpeed="3.089466606879077" /><vType id="vType_car_32.38723937225048" accel="1.0" decel="5.0" sigma="0.0" length="4.5" maxSpeed="8.996455381180688" /><vType id="vType_car_8.230417223866764" accel="1.0" decel="5.0" sigma="0.0" length="4.5" maxSpeed="2.2862270066296566" /><vType id="vType_car_21.810435613822868" accel="1.0" decel="5.0" sigma="0.0" length="4.5" maxSpeed="6.058454337173019" /><vType id="vType_car_19.456743366946412" accel="1.0" decel="5.0" sigma="0.0" length="4.5" maxSpeed="5.404650935262892" /><vType id="vType_car_16.4007554253614" accel="1.0" decel="5.0" sigma="0.0" length="4.5" maxSpeed="4.555765395933722" /><vType id="vType_car_21.976694293489654" accel="1.0" decel="5.0" sigma="0.0" length="4.5" maxSpeed="6.1046373037471255" /><vType id="vType_car_19.005276238932996" accel="1.0" decel="5.0" sigma="0.0" length="4.5" maxSpeed="5.27924339970361" /><vType id="vType_car_15.313988640304792" accel="1.0" decel="5.0" sigma="0.0" length="4.5" maxSpeed="4.253885733417998" /><vType id="vType_car_3.579811343920605" accel="1.0" decel="5.0" sigma="0.0" length="4.5" maxSpeed="0.9943920399779459" /><vType id="vType_car_3.777726317540352" accel="1.0" decel="5.0" sigma="0.0" length="4.5" maxSpeed="1.0493684215389867" /><vType id="vType_car_23.875528556162468" accel="1.0" decel="5.0" sigma="0.0" length="4.5" maxSpeed="6.632091265600685" /><vType id="vType_car_17.567007238912723" accel="1.0" decel="5.0" sigma="0.0" length="4.5" maxSpeed="4.879724233031312" /><vType id="vType_car_3.599520126672622" accel="1.0" decel="5.0" sigma="0.0" length="4.5" maxSpeed="0.999866701853506" /><vType id="vType_car_17.72227587681036" accel="1.0" decel="5.0" sigma="0.0" length="4.5" maxSpeed="4.9228544102251" /><vType id="vType_car_16.99077275653668" accel="1.0" decel="5.0" sigma="0.0" length="4.5" maxSpeed="4.719659099037966" /><vType id="vType_car_24.892375570357167" accel="1.0" decel="5.0" sigma="0.0" length="4.5" maxSpeed="6.914548769543657" /><vType id="vType_car_15.286202757069374" accel="1.0" decel="5.0" sigma="0.0" length="4.5" maxSpeed="4.24616743251927" /><vType id="vType_car_24.688498218931272" accel="1.0" decel="5.0" sigma="0.0" length="4.5" maxSpeed="6.857916171925353" /><vType id="vType_car_3.1572424825617422" accel="1.0" decel="5.0" sigma="0.0" length="4.5" maxSpeed="0.877011800711595" /><vType id="vType_car_13.9820286414841" accel="1.0" decel="5.0" sigma="0.0" length="4.5" maxSpeed="3.883896844856694" /><vType id="vType_car_28.30388950526864" accel="1.0" decel="5.0" sigma="0.0" length="4.5" maxSpeed="7.862191529241288" /><vType id="vType_car_17.778955143280005" accel="1.0" decel="5.0" sigma="0.0" length="4.5" maxSpeed="4.938598650911112" /><vType id="vType_car_20.599935029245476" accel="1.0" decel="5.0" sigma="0.0" length="4.5" maxSpeed="5.72220417479041" /><vType id="vType_car_18.060633212711334" accel="1.0" decel="5.0" sigma="0.0" length="4.5" maxSpeed="5.016842559086482" /><vType id="vType_car_26.9563268698933" accel="1.0" decel="5.0" sigma="0.0" length="4.5" maxSpeed="7.487868574970361" /><vType id="vType_car_16.380066447231254" accel="1.0" decel="5.0" sigma="0.0" length="4.5" maxSpeed="4.550018457564237" /><vType id="vType_car_30.9857152178667" accel="1.0" decel="5.0" sigma="0.0" length="4.5" maxSpeed="8.607143116074084" /><vType id="vType_car_13.820856415947674" accel="1.0" decel="5.0" sigma="0.0" length="4.5" maxSpeed="3.839126782207687" /><vType id="vType_car_21.834570976884557" accel="1.0" decel="5.0" sigma="0.0" length="4.5" maxSpeed="6.065158604690154" /><vType id="vType_car_22.848382100564347" accel="1.0" decel="5.0" sigma="0.0" length="4.5" maxSpeed="6.346772805712319" /><vType id="vType_car_37.91808554346658" accel="1.0" decel="5.0" sigma="0.0" length="4.5" maxSpeed="10.532801539851828" /><vType id="vType_car_18.92605826432893" accel="1.0" decel="5.0" sigma="0.0" length="4.5" maxSpeed="5.257238406758036" /><vType id="vType_car_26.486854344465947" accel="1.0" decel="5.0" sigma="0.0" length="4.5" maxSpeed="7.35745954012943" /><vType id="vType_car_16.842015537099567" accel="1.0" decel="5.0" sigma="0.0" length="4.5" maxSpeed="4.678337649194324" /><vType id="vType_car_20.171544210707612" accel="1.0" decel="5.0" sigma="0.0" length="4.5" maxSpeed="5.603206725196559" /><vType id="vType_car_18.511070891191153" accel="1.0" decel="5.0" sigma="0.0" length="4.5" maxSpeed="5.141964136441987" /><vType id="vType_car_25.472350296957277" accel="1.0" decel="5.0" sigma="0.0" length="4.5" maxSpeed="7.07565286026591" /><vType id="vType_car_17.547922936478273" accel="1.0" decel="5.0" sigma="0.0" length="4.5" maxSpeed="4.874423037910631" /><vType id="vType_car_29.969800267191875" accel="1.0" decel="5.0" sigma="0.0" length="4.5" maxSpeed="8.32494451866441" /><vType id="vType_car_20.262108797578232" accel="1.0" decel="5.0" sigma="0.0" length="4.5" maxSpeed="5.628363554882842" /><vType id="vType_car_0.8717829963554659" accel="1.0" decel="5.0" sigma="0.0" length="4.5" maxSpeed="0.24216194343207384" /><vType id="vType_car_21.380194658179597" accel="1.0" decel="5.0" sigma="0.0" length="4.5" maxSpeed="5.938942960605444" /><vType id="vType_car_11.29790382843559" accel="1.0" decel="5.0" sigma="0.0" length="4.5" maxSpeed="3.138306619009886" /><vType id="vType_car_4.707833904930913" accel="1.0" decel="5.0" sigma="0.0" length="4.5" maxSpeed="1.307731640258587" /><vType id="vType_car_3.0972713896055826" accel="1.0" decel="5.0" sigma="0.0" length="4.5" maxSpeed="0.8603531637793285" /><vType id="vType_car_4.79238985503386" accel="1.0" decel="5.0" sigma="0.0" length="4.5" maxSpeed="1.331219404176072" /><vType id="vType_car_4.168922686455098" accel="1.0" decel="5.0" sigma="0.0" length="4.5" maxSpeed="1.1580340795708606" /><vType id="vType_car_4.533271581048423" accel="1.0" decel="5.0" sigma="0.0" length="4.5" maxSpeed="1.259242105846784" /><route id="route_north_to_east" edges="north_to_center center_to_east" /><route id="route_north_to_south" edges="north_to_center center_to_south" /><route id="route_north_to_west" edges="north_to_center center_to_west" /><route id="route_east_to_west" edges="east_to_center center_to_west" /><route id="route_east_to_south" edges="east_to_center center_to_south" /><route id="route_east_to_north" edges="east_to_center center_to_north" /><route id="route_south_to_west" edges="south_to_center center_to_west" /><route id="route_south_to_north" edges="south_to_center center_to_north" /><route id="route_south_to_east" edges="south_to_center center_to_east" /><route id="route_west_to_south" edges="west_to_center center_to_south" /><route id="route_west_to_north" edges="west_to_center center_to_north" /><route id="route_west_to_east" edges="west_to_center center_to_east" /><vehicle id="veh13" type="vType_car_32.237590085696446" route="route_east_to_west" depart="0.03" /><vehicle id="veh168" type="vType_car_11.166339011537309" route="route_north_to_east" depart="0.03" /><vehicle id="veh181" type="vType_car_10.605510024176672" route="route_east_to_north" depart="0.03" /><vehicle id="veh189" type="vType_car_47.76356336441318" route="route_west_to_east" depart="0.03" /><vehicle id="veh184" type="vType_car_30.138828849472475" route="route_east_to_west" depart="0.50" /><vehicle id="veh192" type="vType_car_11.97271271361054" route="route_east_to_north" depart="1.10" /><vehicle id="veh193" type="vType_car_28.634469463239355" route="route_west_to_south" depart="2.47" /><vehicle id="veh194" type="vType_car_30.35112641653931" route="route_east_to_west" depart="2.80" /><vehicle id="veh195" type="vType_car_56.04388997547528" route="route_west_to_east" depart="3.97" /><vehicle id="veh199" type="vType_truck_40.21720474862905" route="route_east_to_west" depart="7.50" /><vehicle id="veh200" type="vType_car_31.09314131215763" route="route_west_to_south" depart="7.54" /><vehicle id="veh206" type="vType_car_32.87542300002588" route="route_east_to_west" depart="9.01" /><vehicle id="veh207" type="vType_car_31.79737677381058" route="route_west_to_south" depart="9.04" /><vehicle id="veh208" type="vType_car_7.768555777723897" route="route_east_to_north" depart="10.37" /><vehicle id="veh210" type="vType_car_53.18183564539093" route="route_west_to_east" depart="10.94" /><vehicle id="veh212" type="vType_car_34.632164755311145" route="route_east_to_west" depart="11.71" /><vehicle id="veh213" type="vType_car_37.840029165155926" route="route_west_to_south" depart="12.24" /><vehicle id="veh214" type="vType_car_34.57662225410199" route="route_east_to_west" depart="13.44" /><vehicle id="veh217" type="vType_car_18.285061752232124" route="route_west_to_north" depart="17.24" /><vehicle id="veh219" type="vType_car_64.00958724177731" route="route_west_to_east" depart="18.88" /><vehicle id="veh220" type="vType_car_44.437172382544844" route="route_east_to_west" depart="18.98" /><vehicle id="veh221" type="vType_car_32.52978547022022" route="route_west_to_south" depart="20.68" /><vehicle id="veh222" type="vType_car_66.6803333961362" route="route_west_to_east" depart="22.45" /><vehicle id="veh224" type="vType_car_21.102166166482192" route="route_north_to_south" depart="28.18" /><vehicle id="veh229" type="vType_car_25.186015434787926" route="route_north_to_west" depart="30.32" /><vehicle id="veh230" type="vType_car_17.29581550587441" route="route_north_to_east" depart="30.55" /><vehicle id="veh231" type="vType_car_22.8447734815185" route="route_north_to_south" depart="30.75" /><vehicle id="veh233" type="vType_car_21.58711743659399" route="route_north_to_east" depart="33.79" /><vehicle id="veh234" type="vType_car_26.71440061078084" route="route_north_to_south" depart="34.95" /><vehicle id="veh235" type="vType_car_14.891641380361401" route="route_north_to_east" depart="35.12" /><vehicle id="veh239" type="vType_car_15.903730605391836" route="route_north_to_east" depart="37.39" /><vehicle id="veh240" type="vType_car_20.61097160073923" route="route_north_to_west" depart="37.62" /><vehicle id="veh244" type="vType_car_20.316330774719944" route="route_north_to_east" depart="40.32" /><vehicle id="veh245" type="vType_car_26.758806018875532" route="route_north_to_west" depart="40.39" /><vehicle id="veh246" type="vType_car_22.369441112897967" route="route_north_to_west" depart="41.99" /><vehicle id="veh248" type="vType_car_19.17100031888059" route="route_north_to_east" depart="42.93" /><vehicle id="veh252" type="vType_car_18.100795984246624" route="route_north_to_east" depart="44.46" /><vehicle id="veh254" type="vType_car_22.08390607786854" route="route_north_to_west" depart="45.93" /><vehicle id="veh257" type="vType_car_17.243822894533157" route="route_north_to_east" depart="46.56" /><vehicle id="veh259" type="vType_car_26.504691864775104" route="route_north_to_south" depart="47.80" /><vehicle id="veh260" type="vType_car_29.78867116328701" route="route_north_to_south" depart="47.80" /><vehicle id="veh261" type="vType_car_16.585669136123837" route="route_north_to_east" depart="48.36" /><vehicle id="veh262" type="vType_car_31.83976517946425" route="route_north_to_south" depart="51.63" /><vehicle id="veh264" type="vType_car_10.82006066368578" route="route_east_to_north" depart="52.50" /><vehicle id="veh266" type="vType_car_22.187272751947646" route="route_north_to_west" depart="52.90" /><vehicle id="veh268" type="vType_car_16.824989979032477" route="route_north_to_east" depart="54.67" /><vehicle id="veh271" type="vType_car_30.22365586522304" route="route_north_to_south" depart="55.07" /><vehicle id="veh272" type="vType_car_11.025528079705095" route="route_east_to_north" depart="56.33" /><vehicle id="veh273" type="vType_car_17.024292553806834" route="route_north_to_east" depart="56.70" /><vehicle id="veh274" type="vType_car_25.97018125794777" route="route_north_to_west" depart="57.67" /><vehicle id="veh275" type="vType_car_30.936041476502044" route="route_north_to_south" depart="58.97" /><vehicle id="veh276" type="vType_car_27.506670588911764" route="route_north_to_west" depart="60.74" /><vehicle id="veh277" type="vType_car_21.931957879742107" route="route_north_to_west" depart="62.20" /><vehicle id="veh280" type="vType_car_19.004444164346886" route="route_south_to_north" depart="64.97" /><vehicle id="veh281" type="vType_car_36.30961805837512" route="route_north_to_south" depart="65.04" /><vehicle id="veh283" type="vType_car_20.909642258462938" route="route_north_to_west" depart="65.91" /><vehicle id="veh284" type="vType_car_14.382652934012762" route="route_south_to_north" depart="66.71" /><vehicle id="veh285" type="vType_car_7.234727220882888" route="route_east_to_north" depart="66.91" /><vehicle id="veh287" type="vType_car_21.48871999434876" route="route_north_to_west" depart="68.57" /><vehicle id="veh291" type="vType_car_25.602590063831073" route="route_south_to_north" depart="68.94" /><vehicle id="veh292" type="vType_car_11.122079784764678" route="route_north_to_east" depart="71.28" /><vehicle id="veh293" type="vType_car_32.38723937225048" route="route_south_to_north" depart="71.41" /><vehicle id="veh295" type="vType_car_8.230417223866764" route="route_east_to_north" depart="74.78" /><vehicle id="veh296" type="vType_car_21.810435613822868" route="route_south_to_east" depart="76.08" /><vehicle id="veh297" type="vType_car_19.456743366946412" route="route_north_to_west" depart="76.38" /><vehicle id="veh299" type="vType_car_16.4007554253614" route="route_north_to_east" depart="78.68" /><vehicle id="veh300" type="vType_car_21.976694293489654" route="route_north_to_west" depart="78.98" /><vehicle id="veh301" type="vType_car_19.005276238932996" route="route_north_to_west" depart="79.25" /><vehicle id="veh306" type="vType_car_15.313988640304792" route="route_north_to_east" depart="80.88" /><vehicle id="veh310" type="vType_car_23.875528556162468" route="route_north_to_west" depart="82.32" /><vehicle id="veh311" type="vType_car_17.567007238912723" route="route_north_to_east" depart="83.55" /><vehicle id="veh313" type="vType_car_17.72227587681036" route="route_north_to_west" depart="84.55" /><vehicle id="veh314" type="vType_car_16.99077275653668" route="route_north_to_east" depart="84.95" /><vehicle id="veh316" type="vType_car_24.892375570357167" route="route_north_to_south" depart="86.32" /><vehicle id="veh319" type="vType_car_15.286202757069374" route="route_north_to_east" depart="87.99" /><vehicle id="veh320" type="vType_car_24.688498218931272" route="route_north_to_west" depart="89.05" /><vehicle id="veh322" type="vType_car_13.9820286414841" route="route_north_to_east" depart="90.39" /><vehicle id="veh323" type="vType_car_28.30388950526864" route="route_north_to_south" depart="91.12" /><vehicle id="veh324" type="vType_car_17.778955143280005" route="route_north_to_east" depart="91.82" /><vehicle id="veh326" type="vType_car_20.599935029245476" route="route_north_to_west" depart="92.62" /><vehicle id="veh327" type="vType_car_18.060633212711334" route="route_north_to_east" depart="94.29" /><vehicle id="veh328" type="vType_car_26.9563268698933" route="route_north_to_south" depart="95.09" /><vehicle id="veh330" type="vType_car_16.380066447231254" route="route_north_to_east" depart="96.36" /><vehicle id="veh332" type="vType_car_30.9857152178667" route="route_north_to_south" depart="97.53" /><vehicle id="veh333" type="vType_car_13.820856415947674" route="route_north_to_east" depart="99.09" /><vehicle id="veh334" type="vType_car_21.834570976884557" route="route_north_to_west" depart="99.16" /><vehicle id="veh337" type="vType_car_22.848382100564347" route="route_north_to_west" depart="102.29" /><vehicle id="veh338" type="vType_car_37.91808554346658" route="route_south_to_north" depart="102.73" /><vehicle id="veh344" type="vType_car_26.486854344465947" route="route_north_to_south" depart="104.40" /><vehicle id="veh345" type="vType_car_16.842015537099567" route="route_north_to_east" depart="106.56" /><vehicle id="veh346" type="vType_car_20.171544210707612" route="route_north_to_west" depart="106.93" /><vehicle id="veh347" type="vType_car_18.511070891191153" route="route_north_to_east" depart="109.80" /><vehicle id="veh349" type="vType_car_25.472350296957277" route="route_north_to_south" depart="110.60" /><vehicle id="veh350" type="vType_car_17.547922936478273" route="route_north_to_east" depart="111.03" /><vehicle id="veh352" type="vType_car_29.969800267191875" route="route_north_to_south" depart="113.03" /><vehicle id="veh353" type="vType_car_20.262108797578232" route="route_north_to_east" depart="113.17" /><vehicle id="veh356" type="vType_car_21.380194658179597" route="route_north_to_east" depart="114.70" /></routes>