<?xml version='1.0' encoding='utf-8'?>
<routes><vType id="vType_car_16.049729037205356" accel="1.0" decel="5.0" sigma="0.0" length="4.5" maxSpeed="4.4582580658903765" /><vType id="vType_car_10.405961748092874" accel="1.0" decel="5.0" sigma="0.0" length="4.5" maxSpeed="2.8905449300257984" /><vType id="vType_car_13.07590149208478" accel="1.0" decel="5.0" sigma="0.0" length="4.5" maxSpeed="3.6321948589124387" /><vType id="vType_car_12.383526048037236" accel="1.0" decel="5.0" sigma="0.0" length="4.5" maxSpeed="3.43986834667701" /><vType id="vType_car_9.849949237725593" accel="1.0" decel="5.0" sigma="0.0" length="4.5" maxSpeed="2.736097010479331" /><vType id="vType_car_29.065878710276348" accel="1.0" decel="5.0" sigma="0.0" length="4.5" maxSpeed="8.073855197298986" /><vType id="vType_car_16.791968219736418" accel="1.0" decel="5.0" sigma="0.0" length="4.5" maxSpeed="4.664435616593449" /><vType id="vType_car_10.892262126642127" accel="1.0" decel="5.0" sigma="0.0" length="4.5" maxSpeed="3.025628368511702" /><vType id="vType_car_11.126954318054988" accel="1.0" decel="5.0" sigma="0.0" length="4.5" maxSpeed="3.0908206439041632" /><vType id="vType_car_7.0416077202412914" accel="1.0" decel="5.0" sigma="0.0" length="4.5" maxSpeed="1.9560021445114697" /><vType id="vType_car_12.442183484861658" accel="1.0" decel="5.0" sigma="0.0" length="4.5" maxSpeed="3.456162079128238" /><vType id="vType_car_3.9080026014349456" accel="1.0" decel="5.0" sigma="0.0" length="4.5" maxSpeed="1.0855562781763737" /><vType id="vType_car_50.23636090809658" accel="1.0" decel="5.0" sigma="0.0" length="4.5" maxSpeed="13.954544696693494" /><vType id="vType_car_24.603161118465298" accel="1.0" decel="5.0" sigma="0.0" length="4.5" maxSpeed="6.834211421795916" /><vType id="vType_car_13.453685514644377" accel="1.0" decel="5.0" sigma="0.0" length="4.5" maxSpeed="3.7371348651789935" /><vType id="vType_car_3.9125485990299684" accel="1.0" decel="5.0" sigma="0.0" length="4.5" maxSpeed="1.0868190552861023" /><vType id="vType_car_9.52394050107294" accel="1.0" decel="5.0" sigma="0.0" length="4.5" maxSpeed="2.645539028075816" /><vType id="vType_car_14.148362081717615" accel="1.0" decel="5.0" sigma="0.0" length="4.5" maxSpeed="3.930100578254893" /><vType id="vType_car_13.879566785009914" accel="1.0" decel="5.0" sigma="0.0" length="4.5" maxSpeed="3.855435218058309" /><vType id="vType_car_2.766589646096017" accel="1.0" decel="5.0" sigma="0.0" length="4.5" maxSpeed="0.7684971239155602" /><vType id="vType_car_13.322778805351934" accel="1.0" decel="5.0" sigma="0.0" length="4.5" maxSpeed="3.7007718903755373" /><vType id="vType_car_3.3826622704292695" accel="1.0" decel="5.0" sigma="0.0" length="4.5" maxSpeed="0.9396284084525748" /><vType id="vType_car_2.9725132565712804" accel="1.0" decel="5.0" sigma="0.0" length="4.5" maxSpeed="0.8256981268253556" /><vType id="vType_car_9.332761855359808" accel="1.0" decel="5.0" sigma="0.0" length="4.5" maxSpeed="2.5924338487110576" /><vType id="vType_car_14.427118603156746" accel="1.0" decel="5.0" sigma="0.0" length="4.5" maxSpeed="4.007532945321318" /><vType id="vType_car_2.4701693268714435" accel="1.0" decel="5.0" sigma="0.0" length="4.5" maxSpeed="0.6861581463531787" /><vType id="vType_car_18.499325352110006" accel="1.0" decel="5.0" sigma="0.0" length="4.5" maxSpeed="5.138701486697224" /><vType id="vType_car_18.030923574775294" accel="1.0" decel="5.0" sigma="0.0" length="4.5" maxSpeed="5.008589881882026" /><vType id="vType_car_22.371089322014665" accel="1.0" decel="5.0" sigma="0.0" length="4.5" maxSpeed="6.214191478337407" /><vType id="vType_car_3.6680310756980847" accel="1.0" decel="5.0" sigma="0.0" length="4.5" maxSpeed="1.0188975210272457" /><vType id="vType_car_3.1578445059990132" accel="1.0" decel="5.0" sigma="0.0" length="4.5" maxSpeed="0.8771790294441704" /><vType id="vType_car_16.514966124238864" accel="1.0" decel="5.0" sigma="0.0" length="4.5" maxSpeed="4.587490590066351" /><vType id="vType_car_31.738426333062502" accel="1.0" decel="5.0" sigma="0.0" length="4.5" maxSpeed="8.816229536961806" /><vType id="vType_car_25.354852469645508" accel="1.0" decel="5.0" sigma="0.0" length="4.5" maxSpeed="7.043014574901529" /><vType id="vType_car_30.31115754551382" accel="1.0" decel="5.0" sigma="0.0" length="4.5" maxSpeed="8.419765984864949" /><vType id="vType_car_0.15369942478311205" accel="1.0" decel="5.0" sigma="0.0" length="4.5" maxSpeed="0.04269428466197557" /><vType id="vType_car_2.387396685739962" accel="1.0" decel="5.0" sigma="0.0" length="4.5" maxSpeed="0.6631657460388783" /><vType id="vType_car_14.305436970629561" accel="1.0" decel="5.0" sigma="0.0" length="4.5" maxSpeed="3.9737324918415444" /><vType id="vType_car_36.41949203294579" accel="1.0" decel="5.0" sigma="0.0" length="4.5" maxSpeed="10.116525564707164" /><vType id="vType_car_26.311113253802166" accel="1.0" decel="5.0" sigma="0.0" length="4.5" maxSpeed="7.308642570500601" /><vType id="vType_car_2.443820854051481" accel="1.0" decel="5.0" sigma="0.0" length="4.5" maxSpeed="0.6788391261254114" /><vType id="vType_car_37.180150760928434" accel="1.0" decel="5.0" sigma="0.0" length="4.5" maxSpeed="10.327819655813453" /><vType id="vType_car_29.203937224594995" accel="1.0" decel="5.0" sigma="0.0" length="4.5" maxSpeed="8.112204784609721" /><vType id="vType_car_11.365206920108855" accel="1.0" decel="5.0" sigma="0.0" length="4.5" maxSpeed="3.15700192225246" /><vType id="vType_car_41.98230695457693" accel="1.0" decel="5.0" sigma="0.0" length="4.5" maxSpeed="11.661751931826924" /><vType id="vType_car_2.7665896460960164" accel="1.0" decel="5.0" sigma="0.0" length="4.5" maxSpeed="0.7684971239155601" /><vType id="vType_car_9.976265456571332" accel="1.0" decel="5.0" sigma="0.0" length="4.5" maxSpeed="2.771184849047592" /><vType id="vType_car_4.233795370732254" accel="1.0" decel="5.0" sigma="0.0" length="4.5" maxSpeed="1.1760542696478484" /><vType id="vType_car_47.93412267056115" accel="1.0" decel="5.0" sigma="0.0" length="4.5" maxSpeed="13.315034075155875" /><vType id="vType_car_10.133046671316896" accel="1.0" decel="5.0" sigma="0.0" length="4.5" maxSpeed="2.8147351864769155" /><vType id="vType_car_3.037528174533332" accel="1.0" decel="5.0" sigma="0.0" length="4.5" maxSpeed="0.8437578262592588" /><vType id="vType_car_2.9271371308148115" accel="1.0" decel="5.0" sigma="0.0" length="4.5" maxSpeed="0.8130936474485587" /><vType id="vType_car_6.9384261807840115" accel="1.0" decel="5.0" sigma="0.0" length="4.5" maxSpeed="1.9273406057733364" /><vType id="vType_car_38.9012177949901" accel="1.0" decel="5.0" sigma="0.0" length="4.5" maxSpeed="10.805893831941695" /><vType id="vType_truck_44.209956061815426" accel="1.0" decel="5.0" sigma="0.0" length="8" maxSpeed="12.280543350504285" /><vType id="vType_car_8.00396853695717" accel="1.0" decel="5.0" sigma="0.0" length="4.5" maxSpeed="2.223324593599214" /><vType id="vType_car_12.820582544256256" accel="1.0" decel="5.0" sigma="0.0" length="4.5" maxSpeed="3.561272928960071" /><vType id="vType_car_28.156681091948954" accel="1.0" decel="5.0" sigma="0.0" length="4.5" maxSpeed="7.821300303319154" /><vType id="vType_car_52.315202549971424" accel="1.0" decel="5.0" sigma="0.0" length="4.5" maxSpeed="14.532000708325395" /><vType id="vType_car_11.491054948806674" accel="1.0" decel="5.0" sigma="0.0" length="4.5" maxSpeed="3.191959708001854" /><vType id="vType_car_8.192354619483108" accel="1.0" decel="5.0" sigma="0.0" length="4.5" maxSpeed="2.27565406096753" /><vType id="vType_car_8.760101981678067" accel="1.0" decel="5.0" sigma="0.0" length="4.5" maxSpeed="2.433361661577241" /><vType id="vType_car_19.298666017987152" accel="1.0" decel="5.0" sigma="0.0" length="4.5" maxSpeed="5.360740560551987" /><vType id="vType_car_30.140890628768982" accel="1.0" decel="5.0" sigma="0.0" length="4.5" maxSpeed="8.372469619102494" /><vType id="vType_car_11.406941333594059" accel="1.0" decel="5.0" sigma="0.0" length="4.5" maxSpeed="3.1685948148872383" /><vType id="vType_car_24.789742216214243" accel="1.0" decel="5.0" sigma="0.0" length="4.5" maxSpeed="6.886039504503956" /><vType id="vType_car_6.451133120443277" accel="1.0" decel="5.0" sigma="0.0" length="4.5" maxSpeed="1.7919814223453547" /><vType id="vType_car_7.467503573610179" accel="1.0" decel="5.0" sigma="0.0" length="4.5" maxSpeed="2.07430654822505" /><vType id="vType_car_11.390274348094959" accel="1.0" decel="5.0" sigma="0.0" length="4.5" maxSpeed="3.163965096693044" /><vType id="vType_car_56.322708944376686" accel="1.0" decel="5.0" sigma="0.0" length="4.5" maxSpeed="15.645196928993524" /><vType id="vType_car_10.588639395341577" accel="1.0" decel="5.0" sigma="0.0" length="4.5" maxSpeed="2.941288720928216" /><vType id="vType_car_21.509709101468054" accel="1.0" decel="5.0" sigma="0.0" length="4.5" maxSpeed="5.974919194852237" /><vType id="vType_truck_9.97508082716696" accel="1.0" decel="5.0" sigma="0.0" length="8" maxSpeed="2.7708557853241556" /><vType id="vType_car_15.173122853799608" accel="1.0" decel="5.0" sigma="0.0" length="4.5" maxSpeed="4.214756348277668" /><vType id="vType_car_9.270192119163998" accel="1.0" decel="5.0" sigma="0.0" length="4.5" maxSpeed="2.5750533664344437" /><vType id="vType_car_40.097407781033255" accel="1.0" decel="5.0" sigma="0.0" length="4.5" maxSpeed="11.138168828064792" /><vType id="vType_car_18.059295303075857" accel="1.0" decel="5.0" sigma="0.0" length="4.5" maxSpeed="5.0164709175210715" /><vType id="vType_car_7.35878220702455" accel="1.0" decel="5.0" sigma="0.0" length="4.5" maxSpeed="2.0441061686179305" /><vType id="vType_car_58.88341554651767" accel="1.0" decel="5.0" sigma="0.0" length="4.5" maxSpeed="16.35650431847713" /><vType id="vType_car_60.31251757313853" accel="1.0" decel="5.0" sigma="0.0" length="4.5" maxSpeed="16.75347710364959" /><vType id="vType_car_28.14432879313913" accel="1.0" decel="5.0" sigma="0.0" length="4.5" maxSpeed="7.817869109205314" /><vType id="vType_car_2.6399106300773587" accel="1.0" decel="5.0" sigma="0.0" length="4.5" maxSpeed="0.7333085083548219" /><vType id="vType_car_11.497442088701149" accel="1.0" decel="5.0" sigma="0.0" length="4.5" maxSpeed="3.1937339135280967" /><vType id="vType_car_3.6057838800324293" accel="1.0" decel="5.0" sigma="0.0" length="4.5" maxSpeed="1.0016066333423415" /><vType id="vType_car_2.4207659403340145" accel="1.0" decel="5.0" sigma="0.0" length="4.5" maxSpeed="0.6724349834261151" /><vType id="vType_car_3.744726795853509" accel="1.0" decel="5.0" sigma="0.0" length="4.5" maxSpeed="1.0402018877370858" /><vType id="vType_car_5.859730903354907" accel="1.0" decel="5.0" sigma="0.0" length="4.5" maxSpeed="1.6277030287096963" /><vType id="vType_car_9.843276369468935" accel="1.0" decel="5.0" sigma="0.0" length="4.5" maxSpeed="2.734243435963593" /><vType id="vType_car_42.32954762722157" accel="1.0" decel="5.0" sigma="0.0" length="4.5" maxSpeed="11.758207674228215" /><vType id="vType_car_6.961126561315998" accel="1.0" decel="5.0" sigma="0.0" length="4.5" maxSpeed="1.9336462670322216" /><vType id="vType_car_35.749407395461645" accel="1.0" decel="5.0" sigma="0.0" length="4.5" maxSpeed="9.93039094318379" /><vType id="vType_car_16.225778855518392" accel="1.0" decel="5.0" sigma="0.0" length="4.5" maxSpeed="4.507160793199553" /><vType id="vType_car_9.52873513595897" accel="1.0" decel="5.0" sigma="0.0" length="4.5" maxSpeed="2.6468708710997135" /><vType id="vType_car_14.95214589101912" accel="1.0" decel="5.0" sigma="0.0" length="4.5" maxSpeed="4.153373858616422" /><vType id="vType_car_5.564488096418179" accel="1.0" decel="5.0" sigma="0.0" length="4.5" maxSpeed="1.5456911378939386" /><vType id="vType_car_6.576188734450563" accel="1.0" decel="5.0" sigma="0.0" length="4.5" maxSpeed="1.826719092902934" /><vType id="vType_car_49.21058104239125" accel="1.0" decel="5.0" sigma="0.0" length="4.5" maxSpeed="13.669605845108679" /><vType id="vType_car_48.49878624245303" accel="1.0" decel="5.0" sigma="0.0" length="4.5" maxSpeed="13.471885067348063" /><vType id="vType_car_46.45999217459496" accel="1.0" decel="5.0" sigma="0.0" length="4.5" maxSpeed="12.905553381831933" /><vType id="vType_car_36.846249821988785" accel="1.0" decel="5.0" sigma="0.0" length="4.5" maxSpeed="10.235069394996884" /><vType id="vType_car_55.609938799248205" accel="1.0" decel="5.0" sigma="0.0" length="4.5" maxSpeed="15.44720522201339" /><vType id="vType_car_19.753458581609245" accel="1.0" decel="5.0" sigma="0.0" length="4.5" maxSpeed="5.48707182822479" /><vType id="vType_car_8.04872444871517" accel="1.0" decel="5.0" sigma="0.0" length="4.5" maxSpeed="2.2357567913097696" /><vType id="vType_car_51.63774555369762" accel="1.0" decel="5.0" sigma="0.0" length="4.5" maxSpeed="14.34381820936045" /><vType id="vType_car_18.314481004350426" accel="1.0" decel="5.0" sigma="0.0" length="4.5" maxSpeed="5.087355834541785" /><vType id="vType_car_31.85001735926369" accel="1.0" decel="5.0" sigma="0.0" length="4.5" maxSpeed="8.847227044239913" /><vType id="vType_car_8.748724632702578" accel="1.0" decel="5.0" sigma="0.0" length="4.5" maxSpeed="2.430201286861827" /><vType id="vType_car_14.484204313891047" accel="1.0" decel="5.0" sigma="0.0" length="4.5" maxSpeed="4.023390087191958" /><vType id="vType_car_19.088012423695755" accel="1.0" decel="5.0" sigma="0.0" length="4.5" maxSpeed="5.302225673248821" /><vType id="vType_car_19.971894002157324" accel="1.0" decel="5.0" sigma="0.0" length="4.5" maxSpeed="5.5477483339325895" /><vType id="vType_car_29.702234803770548" accel="1.0" decel="5.0" sigma="0.0" length="4.5" maxSpeed="8.250620778825152" /><vType id="vType_car_17.274955019427356" accel="1.0" decel="5.0" sigma="0.0" length="4.5" maxSpeed="4.798598616507599" /><vType id="vType_car_24.098427387369355" accel="1.0" decel="5.0" sigma="0.0" length="4.5" maxSpeed="6.6940076076025985" /><vType id="vType_car_2.1065122248495793" accel="1.0" decel="5.0" sigma="0.0" length="4.5" maxSpeed="0.5851422846804387" /><vType id="vType_car_23.578114609126683" accel="1.0" decel="5.0" sigma="0.0" length="4.5" maxSpeed="6.549476280312967" /><vType id="vType_car_10.116555650605703" accel="1.0" decel="5.0" sigma="0.0" length="4.5" maxSpeed="2.810154347390473" /><vType id="vType_car_52.78221352106081" accel="1.0" decel="5.0" sigma="0.0" length="4.5" maxSpeed="14.661725978072447" /><vType id="vType_car_2.6793583878307548" accel="1.0" decel="5.0" sigma="0.0" length="4.5" maxSpeed="0.7442662188418763" /><vType id="vType_car_44.01181163652046" accel="1.0" decel="5.0" sigma="0.0" length="4.5" maxSpeed="12.225503232366794" /><vType id="vType_car_6.020268147058349" accel="1.0" decel="5.0" sigma="0.0" length="4.5" maxSpeed="1.672296707516208" /><vType id="vType_car_11.031453284903797" accel="1.0" decel="5.0" sigma="0.0" length="4.5" maxSpeed="3.0642925791399436" /><vType id="vType_car_2.535144093741921" accel="1.0" decel="5.0" sigma="0.0" length="4.5" maxSpeed="0.7042066927060892" /><vType id="vType_bus_3.1715503195754433" accel="1.0" decel="5.0" sigma="0.0" length="13" maxSpeed="0.8809861998820676" /><vType id="vType_car_4.990797602116198" accel="1.0" decel="5.0" sigma="0.0" length="4.5" maxSpeed="1.3863326672544996" /><vType id="vType_car_3.3112364541629176" accel="1.0" decel="5.0" sigma="0.0" length="4.5" maxSpeed="0.9197879039341438" /><vType id="vType_car_3.648549708893737" accel="1.0" decel="5.0" sigma="0.0" length="4.5" maxSpeed="1.0134860302482602" /><vType id="vType_car_2.8036202597801387" accel="1.0" decel="5.0" sigma="0.0" length="4.5" maxSpeed="0.778783405494483" /><vType id="vType_car_4.2258331942685805" accel="1.0" decel="5.0" sigma="0.0" length="4.5" maxSpeed="1.1738425539634945" /><vType id="vType_car_3.223154828231588" accel="1.0" decel="5.0" sigma="0.0" length="4.5" maxSpeed="0.8953207856198855" /><vType id="vType_car_18.266087410290513" accel="1.0" decel="5.0" sigma="0.0" length="4.5" maxSpeed="5.0739131695251425" /><vType id="vType_car_8.215820567968386" accel="1.0" decel="5.0" sigma="0.0" length="4.5" maxSpeed="2.282172379991218" /><vType id="vType_car_16.885288535049817" accel="1.0" decel="5.0" sigma="0.0" length="4.5" maxSpeed="4.690357926402727" /><vType id="vType_car_5.641864162099412" accel="1.0" decel="5.0" sigma="0.0" length="4.5" maxSpeed="1.5671844894720588" /><vType id="vType_car_13.499144633090479" accel="1.0" decel="5.0" sigma="0.0" length="4.5" maxSpeed="3.7497623980806885" /><vType id="vType_car_1.7279874066534457" accel="1.0" decel="5.0" sigma="0.0" length="4.5" maxSpeed="0.4799965018481794" /><vType id="vType_car_5.225454767057621" accel="1.0" decel="5.0" sigma="0.0" length="4.5" maxSpeed="1.4515152130715614" /><vType id="vType_car_4.007482947075591" accel="1.0" decel="5.0" sigma="0.0" length="4.5" maxSpeed="1.1131897075209973" /><vType id="vType_car_13.310432960558353" accel="1.0" decel="5.0" sigma="0.0" length="4.5" maxSpeed="3.697342489043987" /><vType id="vType_car_5.230111333338605" accel="1.0" decel="5.0" sigma="0.0" length="4.5" maxSpeed="1.452808703705168" /><vType id="vType_car_17.627991812005074" accel="1.0" decel="5.0" sigma="0.0" length="4.5" maxSpeed="4.896664392223632" /><vType id="vType_car_28.98240690840097" accel="1.0" decel="5.0" sigma="0.0" length="4.5" maxSpeed="8.050668585666937" /><vType id="vType_car_29.32862712712515" accel="1.0" decel="5.0" sigma="0.0" length="4.5" maxSpeed="8.146840868645874" /><vType id="vType_car_27.226955777030927" accel="1.0" decel="5.0" sigma="0.0" length="4.5" maxSpeed="7.563043271397479" /><vType id="vType_car_49.9777895600615" accel="1.0" decel="5.0" sigma="0.0" length="4.5" maxSpeed="13.882719322239305" /><vType id="vType_car_20.02701073785225" accel="1.0" decel="5.0" sigma="0.0" length="4.5" maxSpeed="5.5630585382922915" /><vType id="vType_car_9.174409453203198" accel="1.0" decel="5.0" sigma="0.0" length="4.5" maxSpeed="2.548447070334222" /><vType id="vType_car_48.15619857794363" accel="1.0" decel="5.0" sigma="0.0" length="4.5" maxSpeed="13.376721827206563" /><vType id="vType_car_7.291652653688109" accel="1.0" decel="5.0" sigma="0.0" length="4.5" maxSpeed="2.0254590704689193" /><vType id="vType_car_32.006773789462315" accel="1.0" decel="5.0" sigma="0.0" length="4.5" maxSpeed="8.890770497072864" /><vType id="vType_car_5.576442843020339" accel="1.0" decel="5.0" sigma="0.0" length="4.5" maxSpeed="1.549011900838983" /><vType id="vType_car_24.91181118766968" accel="1.0" decel="5.0" sigma="0.0" length="4.5" maxSpeed="6.919947552130466" /><vType id="vType_car_22.890351252008617" accel="1.0" decel="5.0" sigma="0.0" length="4.5" maxSpeed="6.3584309033357265" /><vType id="vType_car_8.392974143391909" accel="1.0" decel="5.0" sigma="0.0" length="4.5" maxSpeed="2.3313817064977522" /><vType id="vType_car_2.845621298022497" accel="1.0" decel="5.0" sigma="0.0" length="4.5" maxSpeed="0.7904503605618046" /><vType id="vType_bus_3.078574960150146" accel="1.0" decel="5.0" sigma="0.0" length="13" maxSpeed="0.8551597111528184" /><vType id="vType_car_3.104582646521019" accel="1.0" decel="5.0" sigma="0.0" length="4.5" maxSpeed="0.8623840684780608" /><vType id="vType_car_3.424150160751692" accel="1.0" decel="5.0" sigma="0.0" length="4.5" maxSpeed="0.9511528224310255" /><vType id="vType_car_7.608121526764047" accel="1.0" decel="5.0" sigma="0.0" length="4.5" maxSpeed="2.113367090767791" /><vType id="vType_car_15.57281180517779" accel="1.0" decel="5.0" sigma="0.0" length="4.5" maxSpeed="4.325781056993831" /><vType id="vType_car_3.6618649976319704" accel="1.0" decel="5.0" sigma="0.0" length="4.5" maxSpeed="1.0171847215644363" /><vType id="vType_bus_19.51318899036567" accel="1.0" decel="5.0" sigma="0.0" length="13" maxSpeed="5.420330275101575" /><vType id="vType_car_39.35035346780075" accel="1.0" decel="5.0" sigma="0.0" length="4.5" maxSpeed="10.930653741055764" /><vType id="vType_car_18.295202761017332" accel="1.0" decel="5.0" sigma="0.0" length="4.5" maxSpeed="5.082000766949259" /><vType id="vType_car_14.813494047774777" accel="1.0" decel="5.0" sigma="0.0" length="4.5" maxSpeed="4.114859457715216" /><vType id="vType_car_2.932527698312312" accel="1.0" decel="5.0" sigma="0.0" length="4.5" maxSpeed="0.8145910273089755" /><vType id="vType_car_9.094352125596222" accel="1.0" decel="5.0" sigma="0.0" length="4.5" maxSpeed="2.5262089237767285" /><vType id="vType_car_44.53125226169719" accel="1.0" decel="5.0" sigma="0.0" length="4.5" maxSpeed="12.369792294915886" /><vType id="vType_car_21.054348073593474" accel="1.0" decel="5.0" sigma="0.0" length="4.5" maxSpeed="5.848430020442631" /><vType id="vType_car_20.89766337746428" accel="1.0" decel="5.0" sigma="0.0" length="4.5" maxSpeed="5.804906493740078" /><vType id="vType_car_34.98222030400445" accel="1.0" decel="5.0" sigma="0.0" length="4.5" maxSpeed="9.717283417779013" /><vType id="vType_car_43.12140121466311" accel="1.0" decel="5.0" sigma="0.0" length="4.5" maxSpeed="11.978167004073086" /><vType id="vType_car_15.885087398120483" accel="1.0" decel="5.0" sigma="0.0" length="4.5" maxSpeed="4.41252427725569" /><vType id="vType_car_6.017503877989472" accel="1.0" decel="5.0" sigma="0.0" length="4.5" maxSpeed="1.6715288549970755" /><vType id="vType_car_3.5495239956024363" accel="1.0" decel="5.0" sigma="0.0" length="4.5" maxSpeed="0.9859788876673434" /><vType id="vType_car_7.090218336920405" accel="1.0" decel="5.0" sigma="0.0" length="4.5" maxSpeed="1.9695050935890013" /><vType id="vType_bus_0.395227092299431" accel="1.0" decel="5.0" sigma="0.0" length="13" maxSpeed="0.1097853034165086" /><vType id="vType_car_23.150273198327895" accel="1.0" decel="5.0" sigma="0.0" length="4.5" maxSpeed="6.430631443979971" /><vType id="vType_car_55.72136064257019" accel="1.0" decel="5.0" sigma="0.0" length="4.5" maxSpeed="15.478155734047274" /><vType id="vType_car_7.643738905915611" accel="1.0" decel="5.0" sigma="0.0" length="4.5" maxSpeed="2.123260807198781" /><vType id="vType_car_64.01585523198287" accel="1.0" decel="5.0" sigma="0.0" length="4.5" maxSpeed="17.78218200888413" /><vType id="vType_car_45.28751654508391" accel="1.0" decel="5.0" sigma="0.0" length="4.5" maxSpeed="12.579865706967752" /><vType id="vType_car_7.174729711188187" accel="1.0" decel="5.0" sigma="0.0" length="4.5" maxSpeed="1.9929804753300517" /><vType id="vType_car_3.3395691225629927" accel="1.0" decel="5.0" sigma="0.0" length="4.5" maxSpeed="0.9276580896008313" /><vType id="vType_car_23.845286075215483" accel="1.0" decel="5.0" sigma="0.0" length="4.5" maxSpeed="6.6236905764487455" /><vType id="vType_car_26.63972073408695" accel="1.0" decel="5.0" sigma="0.0" length="4.5" maxSpeed="7.399922426135264" /><vType id="vType_car_41.94245653569245" accel="1.0" decel="5.0" sigma="0.0" length="4.5" maxSpeed="11.650682371025681" /><vType id="vType_car_30.533408056812455" accel="1.0" decel="5.0" sigma="0.0" length="4.5" maxSpeed="8.48150223800346" /><vType id="vType_car_19.04626502503306" accel="1.0" decel="5.0" sigma="0.0" length="4.5" maxSpeed="5.290629173620294" /><vType id="vType_car_13.946856747049234" accel="1.0" decel="5.0" sigma="0.0" length="4.5" maxSpeed="3.8741268741803427" /><vType id="vType_car_38.404113939997835" accel="1.0" decel="5.0" sigma="0.0" length="4.5" maxSpeed="10.667809427777176" /><vType id="vType_car_18.713771583561996" accel="1.0" decel="5.0" sigma="0.0" length="4.5" maxSpeed="5.198269884322777" /><vType id="vType_car_20.753184935754557" accel="1.0" decel="5.0" sigma="0.0" length="4.5" maxSpeed="5.764773593265155" /><vType id="vType_car_10.763146235051542" accel="1.0" decel="5.0" sigma="0.0" length="4.5" maxSpeed="2.989762843069873" /><vType id="vType_car_20.923646726570492" accel="1.0" decel="5.0" sigma="0.0" length="4.5" maxSpeed="5.8121240907140255" /><vType id="vType_car_6.519584322801865" accel="1.0" decel="5.0" sigma="0.0" length="4.5" maxSpeed="1.8109956452227403" /><vType id="vType_car_8.760907202000963" accel="1.0" decel="5.0" sigma="0.0" length="4.5" maxSpeed="2.433585333889156" /><vType id="vType_car_3.140892842495568" accel="1.0" decel="5.0" sigma="0.0" length="4.5" maxSpeed="0.8724702340265467" /><vType id="vType_car_4.466960175320958" accel="1.0" decel="5.0" sigma="0.0" length="4.5" maxSpeed="1.2408222709224883" /><vType id="vType_car_36.44230376000844" accel="1.0" decel="5.0" sigma="0.0" length="4.5" maxSpeed="10.1228621555579" /><vType id="vType_car_9.272676739706824" accel="1.0" decel="5.0" sigma="0.0" length="4.5" maxSpeed="2.575743538807451" /><vType id="vType_car_2.413925471428832" accel="1.0" decel="5.0" sigma="0.0" length="4.5" maxSpeed="0.6705348531746755" /><vType id="vType_car_22.37631301128152" accel="1.0" decel="5.0" sigma="0.0" length="4.5" maxSpeed="6.215642503133756" /><vType id="vType_car_3.2896576225160143" accel="1.0" decel="5.0" sigma="0.0" length="4.5" maxSpeed="0.9137937840322262" /><vType id="vType_bus_2.3516011991816144" accel="1.0" decel="5.0" sigma="0.0" length="13" maxSpeed="0.6532225553282262" /><vType id="vType_car_33.75280224619255" accel="1.0" decel="5.0" sigma="0.0" length="4.5" maxSpeed="9.375778401720153" /><vType id="vType_bus_2.766589646096017" accel="1.0" decel="5.0" sigma="0.0" length="13" maxSpeed="0.7684971239155602" /><vType id="vType_car_37.25963300228263" accel="1.0" decel="5.0" sigma="0.0" length="4.5" maxSpeed="10.349898056189618" /><vType id="vType_car_36.21425490159945" accel="1.0" decel="5.0" sigma="0.0" length="4.5" maxSpeed="10.059515250444292" /><vType id="vType_car_3.1485759637406674" accel="1.0" decel="5.0" sigma="0.0" length="4.5" maxSpeed="0.8746044343724075" /><vType id="vType_bus_2.519789137915691" accel="1.0" decel="5.0" sigma="0.0" length="13" maxSpeed="0.699941427198803" /><vType id="vType_car_3.325525160243155" accel="1.0" decel="5.0" sigma="0.0" length="4.5" maxSpeed="0.9237569889564319" /><vType id="vType_car_49.36948498423685" accel="1.0" decel="5.0" sigma="0.0" length="4.5" maxSpeed="13.71374582895468" /><vType id="vType_car_2.935206564494815" accel="1.0" decel="5.0" sigma="0.0" length="4.5" maxSpeed="0.8153351568041152" /><vType id="vType_car_2.4522044590396512" accel="1.0" decel="5.0" sigma="0.0" length="4.5" maxSpeed="0.681167905288792" /><vType id="vType_car_3.5866731444446556" accel="1.0" decel="5.0" sigma="0.0" length="4.5" maxSpeed="0.996298095679071" /><vType id="vType_car_3.718524775144294" accel="1.0" decel="5.0" sigma="0.0" length="4.5" maxSpeed="1.0329235486511927" /><route id="route_north_to_east" edges="north_to_center center_to_east" /><route id="route_north_to_south" edges="north_to_center center_to_south" /><route id="route_north_to_west" edges="north_to_center center_to_west" /><route id="route_east_to_west" edges="east_to_center center_to_west" /><route id="route_east_to_south" edges="east_to_center center_to_south" /><route id="route_east_to_north" edges="east_to_center center_to_north" /><route id="route_south_to_west" edges="south_to_center center_to_west" /><route id="route_south_to_north" edges="south_to_center center_to_north" /><route id="route_south_to_east" edges="south_to_center center_to_east" /><route id="route_west_to_south" edges="west_to_center center_to_south" /><route id="route_west_to_north" edges="west_to_center center_to_north" /><route id="route_west_to_east" edges="west_to_center center_to_east" /><vehicle id="veh919" type="vType_car_16.049729037205356" route="route_north_to_south" depart="0.05" /><vehicle id="veh921" type="vType_car_10.405961748092874" route="route_west_to_north" depart="0.05" /><vehicle id="veh932" type="vType_car_13.07590149208478" route="route_north_to_east" depart="0.05" /><vehicle id="veh957" type="vType_car_12.383526048037236" route="route_south_to_north" depart="0.05" /><vehicle id="veh996" type="vType_car_29.065878710276348" route="route_south_to_west" depart="0.05" /><vehicle id="veh945" type="vType_car_16.791968219736418" route="route_south_to_north" depart="0.05" /><vehicle id="veh983" type="vType_car_10.892262126642127" route="route_south_to_north" depart="0.05" /><vehicle id="veh1011" type="vType_car_11.126954318054988" route="route_west_to_east" depart="0.05" /><vehicle id="veh1005" type="vType_car_12.442183484861658" route="route_north_to_south" depart="0.05" /><vehicle id="veh1014" type="vType_car_50.23636090809658" route="route_east_to_west" depart="1.96" /><vehicle id="veh1016" type="vType_car_24.603161118465298" route="route_east_to_south" depart="2.96" /><vehicle id="veh1017" type="vType_car_13.453685514644377" route="route_west_to_east" depart="3.69" /><vehicle id="veh1020" type="vType_car_9.52394050107294" route="route_south_to_east" depart="12.71" /><vehicle id="veh1021" type="vType_car_14.148362081717615" route="route_north_to_east" depart="12.89" /><vehicle id="veh1023" type="vType_car_13.879566785009914" route="route_west_to_east" depart="14.07" /><vehicle id="veh1025" type="vType_car_13.322778805351934" route="route_north_to_west" depart="16.53" /><vehicle id="veh1032" type="vType_car_9.332761855359808" route="route_north_to_south" depart="31.79" /><vehicle id="veh1033" type="vType_car_14.427118603156746" route="route_north_to_west" depart="33.57" /><vehicle id="veh1035" type="vType_car_18.499325352110006" route="route_north_to_south" depart="35.98" /><vehicle id="veh1036" type="vType_car_18.030923574775294" route="route_north_to_south" depart="37.03" /><vehicle id="veh1038" type="vType_car_22.371089322014665" route="route_south_to_north" depart="38.07" /><vehicle id="veh1041" type="vType_car_16.514966124238864" route="route_north_to_south" depart="40.58" /><vehicle id="veh1043" type="vType_car_31.738426333062502" route="route_north_to_south" depart="41.72" /><vehicle id="veh1044" type="vType_car_25.354852469645508" route="route_south_to_north" depart="42.08" /><vehicle id="veh1045" type="vType_car_30.31115754551382" route="route_south_to_north" depart="43.13" /><vehicle id="veh1051" type="vType_car_14.305436970629561" route="route_north_to_west" depart="45.68" /><vehicle id="veh1054" type="vType_car_26.311113253802166" route="route_south_to_north" depart="47.55" /><vehicle id="veh1056" type="vType_car_37.180150760928434" route="route_north_to_south" depart="49.78" /><vehicle id="veh1058" type="vType_car_11.365206920108855" route="route_north_to_w