<?xml version='1.0' encoding='utf-8'?>
<routes><vType id="vType_car_25.19512524816916" accel="1.0" decel="5.0" sigma="0.0" length="4.5" maxSpeed="6.99864590226921" /><vType id="vType_car_16.374290631011803" accel="1.0" decel="5.0" sigma="0.0" length="4.5" maxSpeed="4.548414064169945" /><vType id="vType_car_5.175609767493476" accel="1.0" decel="5.0" sigma="0.0" length="4.5" maxSpeed="1.4376693798592988" /><vType id="vType_car_3.6172019267159374" accel="1.0" decel="5.0" sigma="0.0" length="4.5" maxSpeed="1.0047783129766492" /><vType id="vType_car_6.178622861297347" accel="1.0" decel="5.0" sigma="0.0" length="4.5" maxSpeed="1.716284128138152" /><vType id="vType_car_15.897758637203896" accel="1.0" decel="5.0" sigma="0.0" length="4.5" maxSpeed="4.416044065889971" /><vType id="vType_car_9.171855939767159" accel="1.0" decel="5.0" sigma="0.0" length="4.5" maxSpeed="2.547737761046433" /><vType id="vType_car_20.647680193453624" accel="1.0" decel="5.0" sigma="0.0" length="4.5" maxSpeed="5.735466720403784" /><vType id="vType_car_20.967490809958573" accel="1.0" decel="5.0" sigma="0.0" length="4.5" maxSpeed="5.82430300276627" /><vType id="vType_car_13.724277409989602" accel="1.0" decel="5.0" sigma="0.0" length="4.5" maxSpeed="3.812299280552667" /><vType id="vType_car_16.151098895541384" accel="1.0" decel="5.0" sigma="0.0" length="4.5" maxSpeed="4.486416359872607" /><vType id="vType_car_5.822116615036967" accel="1.0" decel="5.0" sigma="0.0" length="4.5" maxSpeed="1.6172546152880465" /><vType id="vType_car_29.04812432092098" accel="1.0" decel="5.0" sigma="0.0" length="4.5" maxSpeed="8.06892342247805" /><vType id="vType_truck_17.474930817210957" accel="1.0" decel="5.0" sigma="0.0" length="8" maxSpeed="4.854147449225266" /><vType id="vType_car_21.9701318669678" accel="1.0" decel="5.0" sigma="0.0" length="4.5" maxSpeed="6.1028144074910555" /><vType id="vType_car_5.030381585174311" accel="1.0" decel="5.0" sigma="0.0" length="4.5" maxSpeed="1.3973282181039752" /><vType id="vType_car_24.797406256992968" accel="1.0" decel="5.0" sigma="0.0" length="4.5" maxSpeed="6.888168404720268" /><vType id="vType_car_18.21787097533636" accel="1.0" decel="5.0" sigma="0.0" length="4.5" maxSpeed="5.060519715371211" /><vType id="vType_car_25.902758522763424" accel="1.0" decel="5.0" sigma="0.0" length="4.5" maxSpeed="7.195210700767618" /><vType id="vType_car_13.421058529725013" accel="1.0" decel="5.0" sigma="0.0" length="4.5" maxSpeed="3.7280718138125035" /><vType id="vType_car_11.604109000932667" accel="1.0" decel="5.0" sigma="0.0" length="4.5" maxSpeed="3.223363611370185" /><vType id="vType_car_16.81439622772556" accel="1.0" decel="5.0" sigma="0.0" length="4.5" maxSpeed="4.670665618812655" /><vType id="vType_car_11.822188549372118" accel="1.0" decel="5.0" sigma="0.0" length="4.5" maxSpeed="3.2839412637144774" /><vType id="vType_car_5.0389304614167685" accel="1.0" decel="5.0" sigma="0.0" length="4.5" maxSpeed="1.3997029059491024" /><vType id="vType_car_4.321307826263478" accel="1.0" decel="5.0" sigma="0.0" length="4.5" maxSpeed="1.2003632850731882" /><vType id="vType_car_23.19771610972507" accel="1.0" decel="5.0" sigma="0.0" length="4.5" maxSpeed="6.443810030479186" /><vType id="vType_car_2.8324483153090028" accel="1.0" decel="5.0" sigma="0.0" length="4.5" maxSpeed="0.7867911986969451" /><vType id="vType_car_7.988860351032032" accel="1.0" decel="5.0" sigma="0.0" length="4.5" maxSpeed="2.2191278752866754" /><vType id="vType_car_11.669979723140738" accel="1.0" decel="5.0" sigma="0.0" length="4.5" maxSpeed="3.2416610342057606" /><vType id="vType_car_36.46273774067099" accel="1.0" decel="5.0" sigma="0.0" length="4.5" maxSpeed="10.128538261297496" /><vType id="vType_car_34.7729464137444" accel="1.0" decel="5.0" sigma="0.0" length="4.5" maxSpeed="9.659151781595666" /><vType id="vType_car_20.506725280878307" accel="1.0" decel="5.0" sigma="0.0" length="4.5" maxSpeed="5.696312578021752" /><vType id="vType_car_4.05737249757486" accel="1.0" decel="5.0" sigma="0.0" length="4.5" maxSpeed="1.1270479159930167" /><vType id="vType_car_3.74203536606713" accel="1.0" decel="5.0" sigma="0.0" length="4.5" maxSpeed="1.0394542683519805" /><vType id="vType_car_21.138051632155204" accel="1.0" decel="5.0" sigma="0.0" length="4.5" maxSpeed="5.871681008932001" /><vType id="vType_car_18.254837519257865" accel="1.0" decel="5.0" sigma="0.0" length="4.5" maxSpeed="5.070788199793851" /><vType id="vType_car_35.80457127844204" accel="1.0" decel="5.0" sigma="0.0" length="4.5" maxSpeed="9.945714244011677" /><vType id="vType_car_13.991499100596734" accel="1.0" decel="5.0" sigma="0.0" length="4.5" maxSpeed="3.886527527943537" /><vType id="vType_car_16.47841257203444" accel="1.0" decel="5.0" sigma="0.0" length="4.5" maxSpeed="4.577336825565122" /><vType id="vType_car_15.362612548772985" accel="1.0" decel="5.0" sigma="0.0" length="4.5" maxSpeed="4.267392374659162" /><vType id="vType_car_23.836607718883133" accel="1.0" decel="5.0" sigma="0.0" length="4.5" maxSpeed="6.621279921911981" /><vType id="vType_car_38.697527430699864" accel="1.0" decel="5.0" sigma="0.0" length="4.5" maxSpeed="10.749313175194407" /><vType id="vType_car_23.909362576135116" accel="1.0" decel="5.0" sigma="0.0" length="4.5" maxSpeed="6.6414896044819764" /><vType id="vType_car_17.92217031176365" accel="1.0" decel="5.0" sigma="0.0" length="4.5" maxSpeed="4.978380642156569" /><vType id="vType_car_27.78369497300556" accel="1.0" decel="5.0" sigma="0.0" length="4.5" maxSpeed="7.717693048057099" /><vType id="vType_truck_17.866188974128224" accel="1.0" decel="5.0" sigma="0.0" length="8" maxSpeed="4.962830270591174" /><vType id="vType_car_8.924886649682973" accel="1.0" decel="5.0" sigma="0.0" length="4.5" maxSpeed="2.4791351804674924" /><vType id="vType_car_8.160502360397436" accel="1.0" decel="5.0" sigma="0.0" length="4.5" maxSpeed="2.26680621122151" /><vType id="vType_car_4.165424156862857" accel="1.0" decel="5.0" sigma="0.0" length="4.5" maxSpeed="1.1570622657952379" /><vType id="vType_car_3.5950935648061138" accel="1.0" decel="5.0" sigma="0.0" length="4.5" maxSpeed="0.9986371013350316" /><vType id="vType_car_3.988789722485824" accel="1.0" decel="5.0" sigma="0.0" length="4.5" maxSpeed="1.107997145134951" /><vType id="vType_car_4.403062326666096" accel="1.0" decel="5.0" sigma="0.0" length="4.5" maxSpeed="1.22307286851836" /><route id="route_north_to_east" edges="north_to_center center_to_east" /><route id="route_north_to_south" edges="north_to_center center_to_south" /><route id="route_north_to_west" edges="north_to_center center_to_west" /><route id="route_east_to_west" edges="east_to_center center_to_west" /><route id="route_east_to_south" edges="east_to_center center_to_south" /><route id="route_east_to_north" edges="east_to_center center_to_north" /><route id="route_south_to_west" edges="south_to_center center_to_west" /><route id="route_south_to_north" edges="south_to_center center_to_north" /><route id="route_south_to_east" edges="south_to_center center_to_east" /><route id="route_west_to_south" edges="west_to_center center_to_south" /><route id="route_west_to_north" edges="west_to_center center_to_north" /><route id="route_west_to_east" edges="west_to_center center_to_east" /><vehicle id="veh612" type="vType_car_25.19512524816916" route="route_north_to_south" depart="0.03" /><vehicle id="veh615" type="vType_car_16.374290631011803" route="route_south_to_north" depart="0.03" /><vehicle id="veh627" type="vType_car_15.897758637203896" route="route_north_to_east" depart="1.70" /><vehicle id="veh630" type="vType_car_9.171855939767159" route="route_east_to_north" depart="3.80" /><vehicle id="veh631" type="vType_car_20.647680193453624" route="route_north_to_south" depart="6.60" /><vehicle id="veh632" type="vType_car_20.967490809958573" route="route_north_to_west" depart="8.27" /><vehicle id="veh633" type="vType_car_13.724277409989602" route="route_east_to_north" depart="9.24" /><vehicle id="veh635" type="vType_car_16.151098895541384" route="route_west_to_east" depart="10.20" /><vehicle id="veh640" type="vType_car_29.04812432092098" route="route_north_to_south" depart="12.34" /><vehicle id="veh641" type="vType_truck_17.474930817210957" route="route_north_to_east" depart="13.34" /><vehicle id="veh642" type="vType_car_21.9701318669678" route="route_north_to_west" depart="14.44" /><vehicle id="veh645" type="vType_car_18.21787097533636" route="route_north_to_west" depart="16.27" /><vehicle id="veh646" type="vType_car_25.902758522763424" route="route_north_to_south" depart="20.57" /><vehicle id="veh647" type="vType_car_13.421058529725013" route="route_south_to_north" depart="28.31" /><vehicle id="veh661" type="vType_car_11.822188549372118" route="route_north_to_east" depart="34.34" /><vehicle id="veh664" type="vType_car_23.19771610972507" route="route_north_to_west" depart="38.11" /><vehicle id="veh667" type="vType_car_7.988860351032032" route="route_east_to_north" depart="42.44" /><vehicle id="veh668" type="vType_car_11.669979723140738" route="route_north_to_east" depart="42.54" /><vehicle id="veh669" type="vType_car_36.46273774067099" route="route_west_to_east" depart="49.64" /><vehicle id="veh670" type="vType_car_34.7729464137444" route="route_west_to_south" depart="52.41" /><vehicle id="veh674" type="vType_car_20.506725280878307" route="route_north_to_south" depart="59.18" /><vehicle id="veh678" type="vType_car_21.138051632155204" route="route_north_to_south" depart="65.31" /><vehicle id="veh679" type="vType_car_18.254837519257865" route="route_north_to_east" depart="68.55" /><vehicle id="veh680" type="vType_car_35.80457127844204" route="route_south_to_north" depart="84.45" /><vehicle id="veh684" type="vType_car_15.362612548772985" route="route_west_to_south" depart="87.82" /><vehicle id="veh685" type="vType_car_23.836607718883133" route="route_east_to_west" depart="89.85" /><vehicle id="veh686" type="vType_car_38.697527430699864" route="route_north_to_south" depart="90.65" /><vehicle id="veh687" type="vType_car_23.909362576135116" route="route_east_to_west" depart="91.12" /><vehicle id="veh688" type="vType_car_17.92217031176365" route="route_west_to_north" depart="91.29" /><vehicle id="veh689" type="vType_car_27.78369497300556" route="route_north_to_south" depart="92.82" /></routes>